/----------------------------------------------------------------------
/
/ Steering file for the hydrodynamics: TELEMAC-2D
/
TITLE = 'WATER FLOWING IN A RACETRACK'
/
/----------------------------------------------------------------------
/  FILES
/----------------------------------------------------------------------
/
FORTRAN FILE                 = 'user_fortran_carstens'
GEOMETRY FILE                = 'geo_racetrack_carstens.slf'
BOUNDARY CONDITIONS FILE     = 'geo_racetrack_carstens.cli'
RESULTS FILE                 = 'r2d_racetrack_carstens.slf'
/
/----------------------------------------------------------------------
/  GENERAL INFORMATIONS - OUTPUTS
/----------------------------------------------------------------------
/
VARIABLES FOR GRAPHIC PRINTOUTS  = 'U,V,H,S,B,T*'
/
GRAPHIC PRINTOUT PERIOD          = 60
LISTING PRINTOUT PERIOD          = 600
/ MASS-BALANCE                     = YES
/
DURATION                         = 600
TIME STEP                        = 0.05
/
/----------------------------------------------------------------------
/  INITIAL CONDITIONS
/----------------------------------------------------------------------
/
COMPUTATION CONTINUED      = YES
INITIAL TIME SET TO ZERO   = YES
PREVIOUS COMPUTATION FILE  = 'ini_racetrack_carstens.slf'
/
INITIAL VALUES OF TRACERS  = 0.; 
0.;0.;0.;0.;0.;
0.;0.;0.;0.;0.
/
/----------------------------------------------------------------------
/  PHYSICAL PARAMETERS
/----------------------------------------------------------------------
/
/ PROPELLER (USER DEFINED IN PROSOU, NEEDS WIND ACTIVATED)
WIND = YES
/
LAW OF BOTTOM FRICTION  = 4
FRICTION COEFFICIENT    = 0.006
/
/ TURBULENCE MODEL        = 1
/
DIFFUSION OF VELOCITY   = YES
VELOCITY DIFFUSIVITY    = 1.E-6
OPTION FOR THE DIFFUSION OF VELOCITIES = 2
/
TIDAL FLATS = NO
/
/----------------------------------------------------------------------
/  NUMERICAL PARAMETERS 
/----------------------------------------------------------------------
/
DISCRETIZATIONS IN SPACE                   = 11;11
TYPE OF ADVECTION                          = 1;5;4
TREATMENT OF THE LINEAR SYSTEM             = 2
/SCHEME OPTION FOR ADVECTION OF VELOCITIES  = 4
/SCHEME OPTION FOR ADVECTION OF TRACERS     = 4
SUPG OPTION                                = 1;0;1
/
FREE SURFACE GRADIENT COMPATIBILITY   = 0.9
IMPLICITATION FOR DEPTH               = 1.0
IMPLICITATION FOR VELOCITY            = 1.0
/
MASS-LUMPING ON H = 1
H CLIPPING = YES
/
SOLVER ACCURACY                         = 1.E-8
MAXIMUM NUMBER OF ITERATIONS FOR SOLVER = 250
INFORMATION ABOUT SOLVER                = YES
/
/----------------------------------------------------------------------
/  THERMIC PROCESS
/----------------------------------------------------------------------
/
COUPLING WITH        = 'KHIONE'
KHIONE STEERING FILE = 'ice_monoclass_carstens1.cas'
/
/----------------------------------------------------------------------
/
