/----------------------------------------------------------------------
/
/ Steering file for the hydrodynamics: TELEMAC-2D
/
TITLE = 'WATER FLOWING DOWN IN FLUME OF A TRAPEZOIDAL SHAPE'
/
/----------------------------------------------------------------------
/  FILES
/----------------------------------------------------------------------
/
GEOMETRY FILE                = 'geo_trapeze.slf'
BOUNDARY CONDITIONS FILE     = 'geo_trapeze.cli'
RESULTS FILE                 = 'r2d_trapeze.slf'
/
/----------------------------------------------------------------------
/  GENERAL INFORMATIONS - OUTPUTS
/----------------------------------------------------------------------
/
VARIABLES FOR GRAPHIC PRINTOUTS  = 'B,U,V,H,S,Q,T1'
/
GRAPHIC PRINTOUT PERIOD          = 30
LISTING PRINTOUT PERIOD          = 600
MASS-BALANCE                     = YES
TIME STEP                        = 0.5
NUMBER OF TIME STEPS             = 7200
INFORMATION ABOUT SOLVER         = YES
/
/----------------------------------------------------------------------
/  TRACER(S)
/----------------------------------------------------------------------
/
DIFFUSION OF TRACERS                 = NO
/COEFFICIENT FOR DIFFUSION OF TRACERS = 0.
/
/----------------------------------------------------------------------
/  INITIAL CONDITIONS
/----------------------------------------------------------------------
/
ORIGINAL DATE OF TIME      = 2016;12;2
ORIGINAL HOUR OF TIME      = 0;0;0
/
COMPUTATION CONTINUED      = YES
PREVIOUS COMPUTATION FILE  = 'ini_trapeze.slf'
/
INITIAL VALUES OF TRACERS  = 0.0
/
/----------------------------------------------------------------------
/  BOUNDARY CONDITIONS
/----------------------------------------------------------------------
/
PRESCRIBED FLOWRATES          = 0.0    ; 30.38
PRESCRIBED ELEVATIONS         = 1.6154 ;  0.0
VELOCITY PROFILES             = 4      ;  4
/
CONTINUITY CORRECTION      = YES
/
/  BOUND1 ( TEMPERATURE ); BOUND2 ...
PRESCRIBED TRACERS VALUES  =     0.0   ;  0.0
/
/----------------------------------------------------------------------
/  PHYSICAL PARAMETERS
/----------------------------------------------------------------------
/
TIDAL FLATS = YES
TREATMENT OF NEGATIVE DEPTHS = 2
OPTION FOR THE TREATMENT OF TIDAL FLATS = 1
/
LAW OF BOTTOM FRICTION  = 4
FRICTION COEFFICIENT    = 0.025
/
TURBULENCE MODEL        = 1
/
/ VELOCITY DIFFUSIVITY  = 1.
/ OPTION FOR THE DIFFUSION OF VELOCITIES = 2
/ COEFFICIENT FOR DIFFUSION OF TRACERS   = 1.0
/ OPTION FOR THE DIFFUSION OF TRACERS = 2
/
/----------------------------------------------------------------------
/  NUMERICAL PARAMETERS
/----------------------------------------------------------------------
/
TREATMENT OF THE LINEAR SYSTEM  = 2
DISCRETIZATIONS IN SPACE        = 11;11
TYPE OF ADVECTION               = 14;5;14
SUPG OPTION                     = 2;0;2
MAXIMUM NUMBER OF ITERATIONS FOR ADVECTION SCHEMES = 500
/
FREE SURFACE GRADIENT COMPATIBILITY   = 0.9
IMPLICITATION FOR DEPTH               = 0.55
IMPLICITATION FOR VELOCITY            = 0.55
/
MASS-LUMPING ON H = 1
/
SOLVER                                  = 2
SOLVER ACCURACY                         = 1.E-8
MAXIMUM NUMBER OF ITERATIONS FOR SOLVER = 500
/
/----------------------------------------------------------------------
/  THERMIC PROCESS
/----------------------------------------------------------------------
/
COUPLING WITH          = 'KHIONE'
KHIONE STEERING FILE   = 'ice_trapeze.cas'
AIR TEMPERATURE        = -15.
/
/----------------------------------------------------------------------
/
