/----------------------------------------------------------------------
/
/ Steering file for the hydrodynamics: TELEMAC-2D
/
TITLE = 'WATER FLOWING DOWN IN FLUME OF A TRAPEZOIDAL SHAPE'
/
/----------------------------------------------------------------------
/  FILES
/----------------------------------------------------------------------
/
GEOMETRY FILE                = 'geo_trapeze.slf'
BOUNDARY CONDITIONS FILE     = 'geo_trapeze.cli'
RESULTS FILE                 = 'ini_trapeze.slf'
/
/----------------------------------------------------------------------
/  GENERAL INFORMATIONS - OUTPUTS
/----------------------------------------------------------------------
/
VARIABLES FOR GRAPHIC PRINTOUTS  = 'U,V,H,S'
/
GRAPHIC PRINTOUT PERIOD          = 30
LISTING PRINTOUT PERIOD          = 300
MASS-BALANCE                     = YES
TIME STEP                        = 2.
NUMBER OF TIME STEPS             = 3600
INFORMATION ABOUT SOLVER         = YES
/
/----------------------------------------------------------------------
/  INITIAL CONDITIONS
/----------------------------------------------------------------------
/
ORIGINAL DATE OF TIME      = 2016;12;2
ORIGINAL HOUR OF TIME      = 0;0;0
/
COMPUTATION CONTINUED      = NO
INITIAL CONDITIONS         = 'CONSTANT ELEVATION'
INITIAL ELEVATION          = 1.6154
/
/----------------------------------------------------------------------
/  BOUNDARY CONDITIONS
/----------------------------------------------------------------------
/
PRESCRIBED FLOWRATES          = 0.0    ; 30.38
PRESCRIBED ELEVATIONS         = 1.6154 ;  0.0
VELOCITY PROFILES             = 4      ;  4
/
CONTINUITY CORRECTION      = YES
/
/----------------------------------------------------------------------
/  PHYSICAL PARAMETERS
/----------------------------------------------------------------------
/
TIDAL FLATS = YES
TREATMENT OF NEGATIVE DEPTHS = 2
OPTION FOR THE TREATMENT OF TIDAL FLATS = 1
/
LAW OF BOTTOM FRICTION  = 4
FRICTION COEFFICIENT    = 0.025
/
TURBULENCE MODEL        = 1
/
/ VELOCITY DIFFUSIVITY  = 1.
/ OPTION FOR THE DIFFUSION OF VELOCITIES = 2
/
/----------------------------------------------------------------------
/  NUMERICAL PARAMETERS
/----------------------------------------------------------------------
/
TREATMENT OF THE LINEAR SYSTEM  = 2
DISCRETIZATIONS IN SPACE        = 11;11
TYPE OF ADVECTION               = 14;5
SUPG OPTION                     = 2;0
MAXIMUM NUMBER OF ITERATIONS FOR ADVECTION SCHEMES = 50
/
FREE SURFACE GRADIENT COMPATIBILITY   = 0.9
IMPLICITATION FOR DEPTH               = 0.55
IMPLICITATION FOR VELOCITY            = 0.55
/
MASS-LUMPING ON H = 1
/
SOLVER                                  = 2
SOLVER ACCURACY                         = 1.E-8
MAXIMUM NUMBER OF ITERATIONS FOR SOLVER = 500
/
/----------------------------------------------------------------------
/
