/
/ HP Z600 : 5min19 s compilateur intel10 1 procs  18/01/2014
/ HP Z600 : 56 s compilateur intel10 8 procs  18/01/2014
/
/
FORTRAN FILE             = 'user_fortran'
BOUNDARY CONDITIONS FILE = geo_friction.cli
GEOMETRY FILE            = geo_friction.slf
RESULTS FILE             = r2d_friction.slf
/----------------------------------------------------------------------/
/                     OPTIONS GENERALES
/----------------------------------------------------------------------/
TITLE           = 'TELEMAC 2D : FRICTION CHANNEL'
/----------------------------------------------------------------------/
/    OPTION INPUT OUTPUT
/----------------------------------------------------------------------/
VARIABLES FOR GRAPHIC PRINTOUTS = 'U,V,H,S,B,F,Q,W,N,R'
NUMBER OF PRIVATE ARRAYS        = 2
TIME STEP                       = 5.
GRAPHIC PRINTOUT PERIOD         = 10000
LISTING FOR PRINTOUT PERIOD     = 10000
MASS-BALANCE                    = YES
/----------------------------------------------------------------------
/ IN CASE OF USE OF FINITE VOLUME
/----------------------------------------------------------------------
EQUATIONS                = 'SAINT-VENANT FV'
FINITE VOLUME SCHEME     = 5
VARIABLE TIME-STEP       = YES
DESIRED COURANT NUMBER   = 0.8
DURATION                 = 55000.
/----------------------------------------------------------------------/
/     INITIAL AND BOUNDARY CONDITIONS
/----------------------------------------------------------------------/
INITIAL CONDITIONS     = 'CONSTANT DEPTH'
INITIAL DEPTH          = 9.
PRESCRIBED FLOWRATES   = 0.;6000.
PRESCRIBED ELEVATIONS  = 0.;0.
/----------------------------------------------------------------------/
/     PHYSICAL PARAMETERS
/----------------------------------------------------------------------/
LAW OF BOTTOM FRICTION   = 3
FRICTION COEFFICIENT     = 70.
TURBULENCE MODEL         = 1
VELOCITY DIFFUSIVITY     = 0.D0
/----------------------------------------------------------------------/
/     PROPAGATION
/----------------------------------------------------------------------/
/
/  KEYWORDS COMMENTED BECAUSE FV SCHEMES ARE USED
/
/TYPE OF ADVECTION                   = 1;5
/SUPG OPTION                         = 1;2
/IMPLICITATION FOR DEPTH             = 0.6
/IMPLICITATION FOR VELOCITY          = 0.6
/DISCRETIZATIONS IN SPACE            = 11;11
/TREATMENT OF THE LINEAR SYSTEM      = 2
/SOLVER                              = 1
/SOLVER ACCURACY                     = 1.E-5
/CONTINUITY CORRECTION               = YES
/FREE SURFACE GRADIENT COMPATIBILITY = 0.9
/TIDAL FLATS                         = NO
