/----------------------------------------------------------------------
/
/ Steering file for the hydrodynamics: TELEMAC-2D
/
TITLE = 'THERMAL BUDGET PROCESSES IN A BOX'
/
/----------------------------------------------------------------------
/  FILES
/----------------------------------------------------------------------
/
GEOMETRY FILE                = 'geo_thermic.slf'
BOUNDARY CONDITIONS FILE     = 'geo_thermic.cli'
3D RESULT FILE               = 'r3d_thermic.slf'
/
/----------------------------------------------------------------------
/  GENERAL INFORMATIONS - OUTPUTS
/----------------------------------------------------------------------
/
VARIABLES FOR 3D GRAPHIC PRINTOUTS  = 'U,V,Z,TA1'
/
GRAPHIC PRINTOUT PERIOD          = 6
LISTING PRINTOUT PERIOD          = 300
MASS-BALANCE                     = YES
TIME STEP                        = 300.
NUMBER OF TIME STEPS             = 288
/
/----------------------------------------------------------------------
/  TRACER(S)
/----------------------------------------------------------------------
/
/
SCHEME FOR DIFFUSION OF TRACERS      = 1
/COEFFICIENT FOR DIFFUSION OF TRACERS = 0.
/
/----------------------------------------------------------------------
/  INITIAL CONDITIONS
/----------------------------------------------------------------------
/
ORIGINAL DATE OF TIME      = 2016;12;2
ORIGINAL HOUR OF TIME      = 0;0;0
/
COMPUTATION CONTINUED      = NO
INITIAL CONDITIONS         = 'CONSTANT ELEVATION'
INITIAL ELEVATION          = 1.
/
INITIAL VALUES OF TRACERS  = 1.
/
/----------------------------------------------------------------------
/  PHYSICAL PARAMETERS
/----------------------------------------------------------------------
/
LAW OF BOTTOM FRICTION           = 0
LATITUDE OF ORIGIN POINT         = 44.73
/
/----------------------------------------------------------------------
/  NUMERICAL PARAMETERS
/----------------------------------------------------------------------
/
/ SOLVER FOR DIFFUSION OF TRACERS    =  1
/ MAXIMUM NUMBER OF ITERATIONS FOR DIFFUSION OF TRACERS = 1200
/ ACCURACY FOR DIFFUSION OF TRACERS = 1.E-10
TIDAL FLATS                       = NO
/ ADVECTION OF U AND V              = NO
/ ADVECTION OF H                    = NO
/ ADVECTION OF TRACERS              = YES
/ TYPE OF ADVECTION                 = 1
/ DIFFUSION OF VELOCITY              =NO
/
/----------------------------------------------------------------------
/  THERMIC PROCESS
/----------------------------------------------------------------------
/
COUPLING WITH                = 'KHIONE'
KHIONE STEERING FILE         = 'ice_thermic_linear.cas'
ASCII ATMOSPHERIC DATA FILE  = 't3d_meteo_stlaurent.lqd'
/
/----------------------------------------------------------------------
/
