# TELEMAC-Conda 

This is the repository for the conda package of the TELEMAC solver
Version V8P4

First version: 
minimal version necessary for the prerequisites for the latest TELEMAC-MASCARET
to have compilation, execution pre/post-treatment and validation working.

Second version: 
all the pre requisite libraries need for the latest TELEMAC solver that include 
 - solver optimisation (MUMPS)
 - Salomé formats (MED) binaries
 - GOTM (General Ocean Turbulence Model)
 - BLAS / LAPACK libraries
