/---------------------------------------------------------------------
/ TELEMAC2D Version v7p2
/ VALIDATION TEST FOR RAIN IN 2D- here option 3:
/   1- case without infiltration
/   2- case with CN rainfall-runoff model and CN values in formatted
/      data file
/   3- case with CN rainfall-runoff model and CN values in geometry
/      file and rainfall defined as a hyetograph in formatted data file
/
/  Statistics of CPU Time
/
/  Lenovo D30 2.8 MHz Nag compil.(1procs): 1s   version 7.2 20/08/16
/  Lenovo D30 2.8 MHz Nag compil.(8procs): <1s  version 7.2 20/08/16
/
/---------------------------------------------------------------------
RAINFALL-RUNOFF MODEL                    = 1
DURATION OF RAIN OR EVAPORATION IN HOURS = 6.
ANTECEDENT MOISTURE CONDITIONS           = 2
OPTION FOR INITIAL ABSTRACTION RATIO     = 1
RAIN OR EVAPORATION                      = YES
RAIN OR EVAPORATION IN MM PER DAY        = 100.0
NUMBER OF PRIVATE ARRAYS = 4
NAMES OF PRIVATE VARIABLES = 'CN'
/FORMATTED DATA FILE 2 =runoff_data.dat
FORMATTED DATA FILE 1 =hyetograph.txt
/
/---------------------------------------------------------------------
/ EQUATIONS
/---------------------------------------------------------------------

FRICTION COEFFICIENT   = 70.
LAW OF BOTTOM FRICTION = 3

/---------------------------------------------------------------------
/ EQUATIONS, BOUNDARY CONDITIONS
/---------------------------------------------------------------------

/---------------------------------------------------------------------
/ EQUATIONS, INITIAL CONDITIONS
/---------------------------------------------------------------------

INITIAL CONDITIONS = 'CONSTANT ELEVATION'
INITIAL ELEVATION  = 0.
/---------------------------------------------------------------------
/ INPUT-OUTPUT, FILES
/---------------------------------------------------------------------
BOUNDARY CONDITIONS FILE = 't2d_geo_pluie.cli'
GEOMETRY FILE            = 't2d_geo_pluie.slf'
RESULTS FILE             = 'r2d_rain_CN_geo_hyetograph.slf'
FORTRAN FILE             = 'user_fortran-cn_geo_hyetograph'
/---------------------------------------------------------------------
/ INPUT-OUTPUT, GRAPHICS AND LISTING
/---------------------------------------------------------------------
LISTING PRINTOUT PERIOD         = 2000
GRAPHIC PRINTOUT PERIOD         = 36
VARIABLES FOR GRAPHIC PRINTOUTS = U,V,B,H,S,L,F,O,R,Z
MASS-BALANCE                    = YES
/---------------------------------------------------------------------
/ INPUT-OUTPUT, INFORMATION
/---------------------------------------------------------------------
TITLE = 'Test Rain'
/---------------------------------------------------------------------
/ NUMERICAL PARAMETERS
/---------------------------------------------------------------------
EQUATIONS                           = 'SAINT-VENANT FV'
FINITE VOLUME SCHEME                = 5
TIME STEP                           = 200
DURATION                            = 28800.
VARIABLE TIME-STEP                  = YES
DESIRED COURANT NUMBER              = 0.9
DIFFUSION OF VELOCITY               = NO
