/---------------------------------------------------------------------
/ TELEMAC2D Version v8p4
/ VALIDATION TEST FOR RAIN IN 2D- here option 1:
/   1- case without infiltration
/   2- case with Green-Ampt rainfall-runoff model and ks values in formatted
/      data file
/   3- case with Green-Ampt rainfall-runoff model and ks values in geometry
/      file and rainfall defined as a hyetograph in formatted data file
/
/
/---------------------------------------------------------------------
RAINFALL-RUNOFF MODEL                    = 0
DURATION OF RAIN OR EVAPORATION IN HOURS = 6.
RAIN OR EVAPORATION                      = YES
RAIN OR EVAPORATION IN MM PER DAY        = 1000.0
/
/---------------------------------------------------------------------
/ EQUATIONS
/---------------------------------------------------------------------

FRICTION COEFFICIENT   = 70.
LAW OF BOTTOM FRICTION = 3

/---------------------------------------------------------------------
/ EQUATIONS, BOUNDARY CONDITIONS
/---------------------------------------------------------------------

/---------------------------------------------------------------------
/ EQUATIONS, INITIAL CONDITIONS
/---------------------------------------------------------------------

INITIAL CONDITIONS = 'CONSTANT ELEVATION'
INITIAL ELEVATION  = 0.
/---------------------------------------------------------------------
/ INPUT-OUTPUT, FILES
/---------------------------------------------------------------------
BOUNDARY CONDITIONS FILE = 't2d_geo_pluie_ga.cli'
GEOMETRY FILE            = 't2d_geo_pluie_ga.slf'
RESULTS FILE             = 'r2d_rain_fv.slf'
/---------------------------------------------------------------------
/ INPUT-OUTPUT, GRAPHICS AND LISTING
/---------------------------------------------------------------------
LISTING PRINTOUT PERIOD         = 4000
GRAPHIC PRINTOUT PERIOD         = 3600
VARIABLES FOR GRAPHIC PRINTOUTS = U,V,B,H,S,L,F
MASS-BALANCE                    = YES
/---------------------------------------------------------------------
/ INPUT-OUTPUT, INFORMATION
/---------------------------------------------------------------------
TITLE = 'Constant rain without infiltration FV'
/---------------------------------------------------------------------
/ NUMERICAL PARAMETERS
/---------------------------------------------------------------------
EQUATIONS                           = 'SAINT-VENANT FV'
FINITE VOLUME SCHEME                = 5
TIME STEP                           = 2
DURATION                            = 28800.
VARIABLE TIME-STEP                  = YES
DESIRED COURANT NUMBER              = 0.9
DIFFUSION OF VELOCITY               = NO
