/-------------------------------------------------------------------/
/                        TELEMAC-2D                                 /
/-------------------------------------------------------------------/
/
/----------------------------------------------
/  COMPUTER INFORMATIONS
/----------------------------------------------
/
GEOMETRY FILE                   = geo_flume_bc.slf
BOUNDARY CONDITIONS FILE        = geo_flume_bc.cli
RESULTS FILE                    = r2d_flume_bc.slf
GAIA STEERING FILE : gai_flume_bc.cas
FORTRAN FILE = user_fortran
/----------------------------------------------
/  GENERAL INFORMATIONS - OUTPUTS
/----------------------------------------------
/
VARIABLES FOR GRAPHIC PRINTOUTS = 'U,V,S,B,Q,F,H'
/
GRAPHIC PRINTOUT PERIOD         = 18000
LISTING PRINTOUT PERIOD         = 5400
/
DURATION                        = 1800
VARIABLE TIME-STEP              = YES
DESIRED COURANT NUMBER          = 0.9
MASS-BALANCE                    = YES

TITLE: 'FLUME BC TEST'
COUPLING WITH: 'GAIA'
TIME STEP = 0.1

INFORMATION ABOUT SOLVER : YES
/
/----------------------------------------------
/  INITIAL CONDITIONS
/----------------------------------------------
/
INITIAL CONDITIONS              = 'PARTICULAR'
/
/----------------------------------------------
/  BOUNDARY CONDITIONS
/----------------------------------------------
/
PRESCRIBED FLOWRATES            = 0.;0.0355
PRESCRIBED ELEVATIONS           = 0.0528;0.
/
/----------------------------------------------
/  PHYSICAL PARAMETERS
/----------------------------------------------
/
LAW OF BOTTOM FRICTION          = 3
FRICTION COEFFICIENT            = 62
VELOCITY DIFFUSIVITY            = 0.
/
/----------------------------------------------
/  NUMERICAL PARAMETERS
/----------------------------------------------
/SCHEMES
EQUATIONS                       = 'SAINT-VENANT FV'
/

