/----------------------------------------------------------------------/
/ TELEMAC-2D + SISYPHE                                                 /
/                                                                      /
/  GOUTTEDO CASE OF TELEMAC-2D + MIXED SEDIMENT TRANSPORT              /
/  FOR VERIFICATION OF THE MASS CONSERVATION                           /
/                                                                      /
/----------------------------------------------------------------------/
/
/----------------------------------------------------------------------/
/  FILES                                                               /
/----------------------------------------------------------------------/
/
/ --- GEOMETRY ---
/
GEOMETRY FILE				= 'geo_cons_mixte-t2d.slf'
BOUNDARY CONDITIONS FILE		= 'geo_cons_mixte-t2d.cli'
/
/ --- CODE ---
FORTRAN FILE                           = 'user_fortran'
/
/ --- RESULTS ---
RESULTS FILE				= 'r2d_cons_mixte-t2d.slf'
/
/----------------------------------------------------------------------/
/  GENERAL INFORMATIONS - OUTPUTS                                      /
/----------------------------------------------------------------------/
/
TITLE        = 'GOUTTEDO CASE OF TELEMAC-2D + MIXED SEDIMENT TRANSPORT'
LISTING PRINTOUT PERIOD                 = 100
GRAPHIC PRINTOUT PERIOD                 = 100
VARIABLES FOR GRAPHIC PRINTOUTS         = 'U,V,H'
/
/----------------------------------------------------------------------/
/  TIME DISCRETISATION                                                 /
/----------------------------------------------------------------------/
/
TIME STEP			        = 0.04
NUMBER OF TIME STEPS                    = 1000
/
/----------------------------------------------------------------------/
/  COUPLING WITH SISYPHE                                               /
/----------------------------------------------------------------------/
/
COUPLING WITH                            = 'SISYPHE'
SISYPHE STEERING FILE                    = 'sis_cons_mixte-t2d.cas'
COUPLING PERIOD FOR SISYPHE              = 1
/
/---------------------------------------------------------------------
/ INITIAL CONDITIONS
/---------------------------------------------------------------------
/
COMPUTATION CONTINUED             = NO
/PREVIOUS COMPUTATION FILE         = ''
INITIAL CONDITIONS                = PARTICULAR
/
/---------------------------------------------------------------------
/ BOUNDARY CONDITIONS
/---------------------------------------------------------------------
/
/----------------------------------------------------------------------/
/  BOTTOM FRICTION                                                     /
/----------------------------------------------------------------------/
/
LAW OF BOTTOM FRICTION			= 3
FRICTION COEFFICIENT			= 40.
/
/----------------------------------------------------------------------/
/  TURBULENCE                                                          /
/----------------------------------------------------------------------/
/
TURBULENCE MODEL			= 1
VELOCITY DIFFUSIVITY			= 0.D0
/
/----------------------------------------------------------------------/
/  NUMERICAL PARAMETERS                                                /
/----------------------------------------------------------------------/
/
MAXIMUM NUMBER OF ITERATIONS FOR SOLVER = 100
SOLVER ACCURACY                         = 1.E-4
IMPLICITATION FOR DEPTH                 = 0.6
IMPLICITATION FOR VELOCITY              = 0.6
PRECONDITIONING                         = 2
SOLVER                                  = 8
MASS-LUMPING ON H                       = 1.
MASS-BALANCE                            = YES
MATRIX STORAGE                          = 3
TREATMENT OF THE LINEAR SYSTEM          = 2 / for wave equation
TYPE OF ADVECTION                       = 1;5
SUPG OPTION                             = 2;0
