/---------------------------------------------------------------------
/       TELEMAC 2D TEST CASE
/       Free Surface Flow (FSF) in a fixed rectangular channel
/       with a little bump in the beginning
/---------------------------------------------------------------------
/       AUTHOUR : Fabio Mattia
/       DATE    : 21/01/2013
/---------------------------------------------------------------------
/       COMPUTER INFORMATIONS
/---------------------------------------------------------------------
/
GEOMETRY FILE                     : geo_FSF_02.slf
BOUNDARY CONDITIONS FILE          : geo_FSF_02.cli
RESULTS FILE                      : r2d_FSF_02.slf
FORTRAN FILE                      : 'user_fortran'
COMPUTATION CONTINUED             : YES
PREVIOUS COMPUTATION FILE         : r2d_FSF_02_init.slf
/
/---------------------------------------------------------------------
/       GENERAL INFORMATIONS
/---------------------------------------------------------------------
/
TITLE            : 'F.S.F. in a fixed rectangular channel with a bump'
VARIABLES FOR GRAPHIC PRINTOUTS                 : 'H,U,V,Q,S,B'
TIME STEP                                       : 1.
GRAPHIC PRINTOUT PERIOD                         : 100
LISTING PRINTOUT PERIOD                         : 100
NUMBER OF TIME STEPS                            : 1000
/
/---------------------------------------------------------------------
/       INITIAL CONDITIONS
/---------------------------------------------------------------------
/
INITIAL CONDITIONS                              :'CONSTANT DEPTH'
INITIAL DEPTH                                   : 0.044
/
/---------------------------------------------------------------------
/       BOUNDARY CONDITIONS
/---------------------------------------------------------------------
/
PRESCRIBED ELEVATIONS                        : 0.044     ; 0.     ; 0.
PRESCRIBED FLOWRATES                         : 0.   ; 1.0   ; 1.0
OPTION FOR LIQUID BOUNDARIES                 :1;1;1
/
/---------------------------------------------------------------------
/       PHISICAL PARAMETERS
/---------------------------------------------------------------------
/
LAW OF BOTTOM FRICTION                          : 3
FRICTION COEFFICIENT                            : 54.25
/TURBULENCE MODEL                                : 1
/
/---------------------------------------------------------------------
/      COUPLING WITH SISYPHE
/---------------------------------------------------------------------
SISYPHE STEERING FILE  :  sis_canal-t2d.cas
COUPLING WITH : 'SISYPHE'
COUPLING PERIOD FOR SISYPHE = 1
/
/ DEFAULT VALUE UNTIL V8P1 KEPT FOR NON REGRESSION
TREATMENT OF THE LINEAR SYSTEM = 1
