/----------------------------------------------------------------------
/
/ This case validates the effect of ice cover on the hydrodynamics
/    in a long flume.
/
/ Setting up a steady state hydrodynamics for use as continuation file
/
/ Steering file for the hydrodynamics: TELEMAC-2D
/
TITLE = 'WATER FLOWING DOWN A LONG FLUME'
/ DEBUGGER = 1
/
/----------------------------------------------------------------------
/  FILES
/----------------------------------------------------
/
GEOMETRY FILE                = 'geo_slowflume.slf'
BOUNDARY CONDITIONS FILE     = 'geo_slowflume.cli'
RESULTS FILE                 = 'ini_slowflume.slf'
/
/ FORTRAN FILE = 'fortran'
/----------------------------------------------------------------------
/  GENERAL INFORMATIONS - OUTPUTS
/----------------------------------------------------
/
VARIABLES FOR GRAPHIC PRINTOUTS  = 'U,V,H'
/
GRAPHIC PRINTOUT PERIOD          = 1000
LISTING PRINTOUT PERIOD          = 20
MASS-BALANCE                     = YES
TIME STEP                        = 30.0
NUMBER OF TIME STEPS             = 4320
INFORMATION ABOUT SOLVER         = YES
/
/----------------------------------------------------------------------
/  INITIAL CONDITIONS
/----------------------------------------------------
/
ORIGINAL DATE OF TIME      = 2016;12;2
ORIGINAL HOUR OF TIME      = 0;0;0
INITIAL TIME SET TO ZERO   = YES
/
COMPUTATION CONTINUED      = NO
INITIAL CONDITIONS         = 'CONSTANT DEPTH'
INITIAL DEPTH              = 2.6265
/
/----------------------------------------------------------------------
/  BOUNDARY CONDITIONS
/----------------------------------------------------
/
PRESCRIBED FLOWRATES          = 0.0    ; 30
PRESCRIBED ELEVATIONS         = 6.6265 ;  0.0
VELOCITY PROFILES             = 1      ;  1                /!\ added !
/
CONTINUITY CORRECTION      = YES
/
/----------------------------------------------------------------------
/  PHYSICAL PARAMETERS
/----------------------------------------------------
/
TIDAL FLATS = NO
/
LAW OF BOTTOM FRICTION  = 4
FRICTION COEFFICIENT    = 0.025
/
/TURBULENCE MODEL        = 1
/
/ VELOCITY DIFFUSIVITY  = 1.
/ OPTION FOR THE DIFFUSION OF VELOCITIES = 2
/
/----------------------------------------------------------------------
/  NUMERICAL PARAMETERS
/----------------------------------------------------
/
DISCRETIZATIONS IN SPACE        = 11;11
TYPE OF ADVECTION               =  1;5
SUPG OPTION                     =  1;2
/
FREE SURFACE GRADIENT COMPATIBILITY   = 0.9
IMPLICITATION FOR DEPTH               = 0.6
IMPLICITATION FOR VELOCITY            = 1.0
/
/ MASS-LUMPING ON H = 1
/ H CLIPPING = YES
/ MINIMUM VALUE OF DEPTH = 0.001
/
SOLVER ACCURACY                         = 1.E-8
MAXIMUM NUMBER OF ITERATIONS FOR SOLVER = 250
/
/----------------------------------------------------------------------
/
