/----------------------------------------------------------------------
/
/ This case validates the effect of ice cover on the hydrodynamics
/    in a long flume.
/
/ Setting up a steady state hydrodynamics for use as continuation file
/
/ Steering file for the hydrodynamics: TELEMAC-2D
/
TITLE = 'WATER FLOWING DOWN A LONG FLUME'
/
/----------------------------------------------------------------------
/  FILES
/----------------------------------------------------
/
GEOMETRY FILE                = 'geo_slowflume.slf'
BOUNDARY CONDITIONS FILE     = 'geo_slowflume.cli'
RESULTS FILE                 = 'r2d_clogging_v01.slf'
/
/----------------------------------------------------------------------
/  GENERAL INFORMATIONS - OUTPUTS
/----------------------------------------------------
/
VARIABLES FOR GRAPHIC PRINTOUTS  = 'U,V,H,S,B,T1'
GRAPHIC PRINTOUT PERIOD          = 36000
LISTING PRINTOUT PERIOD          = 1500
MASS-BALANCE                     = YES
TIME STEP                        = 1.
DURATION                         = 15000
INFORMATION ABOUT SOLVER         = YES
/
/----------------------------------------------------------------------
/  TRACER(S)
/----------------------------------------------------
DIFFUSION OF TRACERS                 = NO
/COEFFICIENT FOR DIFFUSION OF TRACERS = 0.
/
/----------------------------------------------------------------------
/  INITIAL CONDITIONS
/----------------------------------------------------
/
ORIGINAL DATE OF TIME      = 2016;12;2
ORIGINAL HOUR OF TIME      = 0;0;0
INITIAL TIME SET TO ZERO   = YES
/
COMPUTATION CONTINUED      = YES
PREVIOUS COMPUTATION FILE  = 'ini_slowflume.slf'
/
INITIAL VALUES OF TRACERS = 1.E-1
/
/----------------------------------------------------------------------
/  BOUNDARY CONDITIONS
/----------------------------------------------------
/
PRESCRIBED FLOWRATES          = 0.0    ; 30
PRESCRIBED ELEVATIONS         = 6.6265 ;  0.0
VELOCITY PROFILES             = 1      ;  1                /!\ added !
/
CONTINUITY CORRECTION      = YES
/
/ BOUND1 ( TEMPERATURE ); BOUND2 ...
PRESCRIBED TRACERS VALUES  =     0.0   ;  1.E-1
/
/----------------------------------------------------------------------
/  PHYSICAL PARAMETERS
/----------------------------------------------------
/
TIDAL FLATS = NO
/
LAW OF BOTTOM FRICTION  = 4
FRICTION COEFFICIENT    = 0.025
/
TURBULENCE MODEL        = 1
/
/----------------------------------------------------------------------
/  NUMERICAL PARAMETERS
/----------------------------------------------------
/
DISCRETIZATIONS IN SPACE        = 11;11
TYPE OF ADVECTION               =  1;5;4
SUPG OPTION                     =  1;2;1
/
FREE SURFACE GRADIENT COMPATIBILITY   = 0.9
IMPLICITATION FOR DEPTH               = 0.6
IMPLICITATION FOR VELOCITY            = 1.0
/
SOLVER ACCURACY                         = 1.E-8
MAXIMUM NUMBER OF ITERATIONS FOR SOLVER = 250
/
/----------------------------------------------------------------------
/  THERMIC AND CLOGGING PROCESSES
/----------------------------------------------------
/
COUPLING WITH          = 'KHIONE'
/
KHIONE STEERING FILE   = 'ice_clogging.cas'
AIR TEMPERATURE = -2.5
CLOUD COVER = 0.
/
/----------------------------------------------------------------------
/
