/----------------------------------------------------------------------
/
/ This case validates the growth and transport of frazil ice in a
/    long flume.
/
/ Setting up a steady state hydrodynamics for use as continuation file
/
/ Steering file for the hydrodynamics: TELEMAC-2D
/
TITLE = 'WATER FLOWING DOWN A LONG FLUME'
/
/----------------------------------------------------------------------
/  FILES
/----------------------------------------------------------------------
/
GEOMETRY FILE                = 'geo_longflume.slf'
BOUNDARY CONDITIONS FILE     = 'geo_longflume.cli'
3D RESULT FILE                 = 'r3d_growth_salinity.slf'
/
/----------------------------------------------------------------------
/  GENERAL INFORMATIONS - OUTPUTS
/----------------------------------------------------------------------
/
VARIABLES FOR 3D GRAPHIC PRINTOUTS  = 'U,V,Z'
/
GRAPHIC PRINTOUT PERIOD          = 10
LISTING PRINTOUT PERIOD          = 300
MASS-BALANCE                     = YES
TIME STEP                        = 1.
NUMBER OF TIME STEPS             = 3600
NUMBER OF HORIZONTAL LEVELS      = 5
/
/
/----------------------------------------------------------------------
/  INITIAL CONDITIONS
/----------------------------------------------------------------------
/
ORIGINAL DATE OF TIME      = 2016;12;2
ORIGINAL HOUR OF TIME      = 0;0;0
INITIAL TIME SET TO ZERO   = YES
/
COMPUTATION CONTINUED      = YES
PREVIOUS COMPUTATION FILE  = 'ini_longflume.slf'
/
INITIAL VALUES OF TRACERS  = 2.E-2 ; 1.0
/
/----------------------------------------------------------------------
/  BOUNDARY CONDITIONS
/----------------------------------------------------------------------
/
PRESCRIBED FLOWRATES          = 0.0    ; 300
PRESCRIBED ELEVATIONS         = 6.6265 ;  0.0
VELOCITY PROFILES             = 1      ;  1                /!\ added !
/
/ BOUND1 ( TEMPERATURE; SALINITY ); BOUND2 ...
PRESCRIBED TRACERS VALUES  =     0.0;1.   ;  2.E-2;1.
/
/----------------------------------------------------------------------
/  PHYSICAL PARAMETERS
/----------------------------------------------------------------------
/
TIDAL FLATS = NO
/
LAW OF BOTTOM FRICTION  = 4
FRICTION COEFFICIENT FOR THE BOTTOM    = 0.025
/
/----------------------------------------------------------------------
/  THERMIC PROCESS
/----------------------------------------------------------------------
/
COUPLING WITH                = 'KHIONE'
KHIONE STEERING FILE         = 'ice_frazil_growth_sal.cas'
ASCII ATMOSPHERIC DATA FILE  = 't3d_frazil_growth_meteo.lqd'
/
/----------------------------------------------------------------------
