/----------------------------------------------------------------------
/
/ Steering file for the hydrodynamics: TELEMAC-2D
/
TITLE = 'WATER FLOWING DOWN A LONG FLUME'
/
/----------------------------------------------------------------------
/  FILES
/----------------------------------------------------------------------
/
GEOMETRY FILE                = 'geo_longflume.slf'
BOUNDARY CONDITIONS FILE     = 'geo_longflume.cli'
3D RESULT FILE                 = 'ini_longflume.slf'
/
/----------------------------------------------------------------------
/  GENERAL INFORMATIONS - OUTPUTS
/----------------------------------------------------------------------
/
VARIABLES FOR 3D GRAPHIC PRINTOUTS  = 'U,V,Z'
/
GRAPHIC PRINTOUT PERIOD          = 360
LISTING PRINTOUT PERIOD          = 60
MASS-BALANCE                     = YES
TIME STEP                        = 10.
NUMBER OF TIME STEPS             = 3600
NUMBER OF HORIZONTAL LEVELS      = 5
/
/----------------------------------------------------------------------
/  INITIAL CONDITIONS
/----------------------------------------------------------------------
/
ORIGINAL DATE OF TIME      = 2016;12;2
ORIGINAL HOUR OF TIME      = 0;0;0
/
COMPUTATION CONTINUED      = NO
INITIAL CONDITIONS         = 'CONSTANT DEPTH'
INITIAL DEPTH              = 2.6265
/
/----------------------------------------------------------------------
/  BOUNDARY CONDITION
/----------------------------------------------------------------------
/
PRESCRIBED FLOWRATES          = 0.0    ; 300
PRESCRIBED ELEVATIONS         = 6.6265 ;  0.0
VELOCITY PROFILES             = 1      ;  1
/
/
/----------------------------------------------------------------------
/  PHYSICAL PARAMETERS
/----------------------------------------------------------------------
/
TIDAL FLATS = NO
/
LAW OF BOTTOM FRICTION  = 4
FRICTION COEFFICIENT FOR THE BOTTOM    = 0.025
/
