                    
TELEMAC3D-V5.5 NH REF. TEST CASE

SOLITARY WAVE PROPAGATION OVER AN UNEVEN BOTTOM
------------------------------------------------


 ==================================
 |REFERENCE    1th WAVE   2nd WAVE|
 |--------------------------------|
 |2 (present)    160%       71%   |
 |3              163%       56%   |
 |4              153%       55%   |
 =================================|
 (2) J. A. Jankowski
 A Non-hydrostatic model for free surface flows.
 PHd Hanover University, June 1998
 (3) Madsen, O. and Mei, C.
 The transformation of a solitary wave over an uneven bottom
 JFM, 39(4), 781-791, (1969)
 (4) Hauguel, A.
 Adaptation of tidal numerical models to shallow water wave problems.
 Proc. 17th Coas. Eng. Conf., Sydney, OZ, (1980) 




