/
/ REFINEMENT OF MESH FILE USING STBTEL
/
/
/ INPUT FILE INFORMATION
/
UNIVERSAL FILE : 'geo.slf'
BOUNDARY UNIVERSAL FILE : 'geo.cli'
/
MESH GENERATOR : 'SELAFIN'
CUTTING ELEMENTS IN FOUR : YES
/
/ OUTPUT FILE INFORMATION
/
GEOMETRY FILE FORMAT FOR TELEMAC: 'SERAFIND'
GEOMETRY FILE FOR TELEMAC : 'geox4.slf'
BOUNDARY CONDITIONS FILE : 'geox4.cli'
