&DYN
/ Description of a keyword
/ NOM : French name
/ NOM1 : English name
/ TYPE : STRING, INTEGER, REAL, LOGICAL
/ INDEX : Index of the keyword
/ TAILLE : Number of values (0 means between 1 and n)
/ (opt) SUBMIT : Chain for files
/ DEFAUT : Defaut value in French
/ DEFAUT1 : Defaut value in English
/ MNEMO : Name of the variable in the code
/ (opt) CONTROLE : min;max for the keyword value
/ (opt) CHOIX : List of possible values
/ (opt) CHOIX1 : CHOIX in french
/ (opt) APPARENCE : Defined how the keyword is filled
/   LIST, DYNLIST, TUPLE
/ RUBRIQUE : Classification of the keyword 3 level max
/ RUBRIQUE1 : RUBRIQUE but in English
/ (opt) COMPOSE : Used for fudaa
/ (opt) COMPORT : Used for fudaa
/ NIVEAU : Level of the keyword (Level 0 is a mandatory keyword)
/ AIDE : Help in French (LaTeX syntax)
/ AIDE1 : Help in English (LaTeX syntax)
/---SYSTEME-TELEMAC-------------------------------------------------------------
/
/ INTEGER INDEX USED: 1-37,39-43,45-49,51-77,79-82,84-87,89-92,95-101,103-127 OUT OF 118
/ REAL INDEX USED: 1-6,8-26,28-42,51-69,71-107 OUT OF  96
/ LOGICAL INDEX USED: 1-2,5-23,31-34,51-51,58-61,68-72,75-87,90-93 OUT OF  52
/ STRING INDEX USED: 1-4,6-11,13-14,16-23,28-35,41-47,50-53,55-79,83-95,98-98,100-103 OUT OF  82
/
/-------------------------------------------------------------------------------
////////////////////////////////////////////////////////////////////////
/// 1-COMPUTATION ENVIRONMENT
////////////////////////////////////////////////////////////////////////
////////////////////////////////////////////////////////////////////////
///// 1.1-GLOBAL
////////////////////////////////////////////////////////////////////////
NOM = 'TITRE'
NOM1 = 'TITLE'
TYPE = STRING
INDEX = 1
TAILLE = 1
DEFAUT = ''
DEFAUT1 = ''
MNEMO = 'TITCAS'
RUBRIQUE =
'ENVIRONNEMENT DE CALCUL';'GLOBAL';''
RUBRIQUE1 =
'COMPUTATION ENVIRONMENT';'GLOBAL';''
COMPORT =
'Foreground ("ENTREES-SORTIES, GENERALITES*CALCUL")
IS BRUT (red)'
NIVEAU = 0
AIDE =
'Titre du cas etudie.'
AIDE1 =
'Title of the case being considered.'
/
NOM = 'PROCESSEURS PARALLELES'
NOM1 = 'PARALLEL PROCESSORS'
TYPE = INTEGER
INDEX = 45
TAILLE = 1
DEFAUT = 0
DEFAUT1 = 0
MNEMO = 'NCSIZE'
RUBRIQUE =
'ENVIRONNEMENT DE CALCUL';'GLOBAL';''
RUBRIQUE1 =
'COMPUTATION ENVIRONMENT';'GLOBAL';''
NIVEAU = 1
AIDE =
'Nombre de processeurs pour la decomposition en parallele.
La valeur 0 correspond a un calcul scalaire.'
AIDE1 =
'Number of processors for domain partition.
Value 0 corresponds to a scalar computation.'
/
NOM = 'VERIFICATION DU MAILLAGE'
NOM1 = 'CHECKING THE MESH'
TYPE = LOGICAL
INDEX = 21
TAILLE = 1
DEFAUT = NON
DEFAUT1 = NO
MNEMO = 'CHECK\_MESH'
RUBRIQUE =
'ENVIRONNEMENT DE CALCUL';'GLOBAL';''
RUBRIQUE1 =
'COMPUTATION ENVIRONMENT';'GLOBAL';''
NIVEAU = 0
AIDE =
'Si OUI on appelle le sous-programme \telfile{CHECKMESH} qui verifie
la coherence du maillage, points superposes, etc.'
AIDE1 =
'If this keyword is equal to YES, a call to subroutine
\telfile{CHECKMESH} will look for errors in the mesh,
superimposed points, etc.'
/
NOM = 'NOMBRE MAXIMUM DE FRONTIERES'
NOM1 = 'MAXIMUM NUMBER OF BOUNDARIES'
TYPE = INTEGER
INDEX = 121
TAILLE = 1
DEFAUT = 30
DEFAUT1 = 30
MNEMO = 'MAXFRO'
RUBRIQUE =
'ENVIRONNEMENT DE CALCUL';'GLOBAL';''
RUBRIQUE1 =
'COMPUTATION ENVIRONMENT';'GLOBAL';''
NIVEAU = 1
AIDE =
'Nombre maximal de frontieres differentes dans le maillage.
Sert au dimensionnement de la memoire, a augmenter si necessaire.'
AIDE1 =
'Maximal number of boundaries in the mesh.
Used for dimensioning arrays. Can be increased if needed.'
/
NOM = 'NOMBRE MAXIMUM DE TRACEURS'
NOM1 = 'MAXIMUM NUMBER OF TRACERS'
TYPE = INTEGER
INDEX = 123
TAILLE = 1
DEFAUT = 20
DEFAUT1 = 20
MNEMO = 'MAXTRA'
RUBRIQUE =
'ENVIRONNEMENT DE CALCUL';'GLOBAL';''
RUBRIQUE1 =
'COMPUTATION ENVIRONMENT';'GLOBAL';''
NIVEAU = 1
AIDE =
'Nombre maximal de traceurs.
Sert au dimensionnement de la memoire, a augmenter si necessaire.'
AIDE1 =
'Maximal number of tracers.
Used for dimensioning arrays. Can be increased if needed.'
/
NOM = 'NOMBRE MAXIMUM DE SOURCES'
NOM1 = 'MAXIMUM NUMBER OF SOURCES'
TYPE = INTEGER
INDEX = 122
TAILLE = 1
DEFAUT = 20
DEFAUT1 = 20
MNEMO = 'MAXSCE'
RUBRIQUE =
'ENVIRONNEMENT DE CALCUL';'GLOBAL';''
RUBRIQUE1 =
'COMPUTATION ENVIRONMENT';'GLOBAL';''
NIVEAU = 1
AIDE =
'Nombre maximal de points sources dans le maillage,
incluant les sources ponctuelles et 2 fois le nombre de buses.
Sert au dimensionnement de la memoire, a augmenter si necessaire.'
AIDE1 =
'Maximal number of source points in the mesh, including
punctual sources and twice the number of culverts.
Used for dimensioning arrays. Can be increased if needed.'
/
NOM = 'NOMBRE MAXIMUM DE FRONTIERES SUR LE FOND'
NOM1 = 'MAXIMUM NUMBER OF BOUNDARIES ON THE BED'
TYPE = INTEGER
INDEX = 124
TAILLE = 1
DEFAUT = 30
DEFAUT1 = 30
MNEMO = 'MAXBLB'
RUBRIQUE =
'ENVIRONNEMENT DE CALCUL';'GLOBAL';''
RUBRIQUE1 =
'COMPUTATION ENVIRONMENT';'GLOBAL';''
NIVEAU = 1
AIDE =
'Nombre maximal de frontieres liquides sur le fond.
Sert au dimensionnement de la memoire, a augmenter si necessaire.'
AIDE1 =
'Maximal number of liquid boundaries on the bed.
Used for dimensioning arrays. Can be increased if needed.'
/
NOM = 'LONGUEUR DU VECTEUR'
NOM1 = 'VECTOR LENGTH'
TYPE = INTEGER
INDEX = 61
TAILLE = 1
DEFAUT = 1
DEFAUT1 = 1
MNEMO = 'LVMAC'
RUBRIQUE =
'ENVIRONNEMENT DE CALCUL';'GLOBAL';''
RUBRIQUE1 =
'COMPUTATION ENVIRONMENT';'GLOBAL';''
NIVEAU = 3
AIDE =
'Longueur du vecteur pour les machines vectorielles.'
AIDE1 =
'Vector length on vector machines.'
/
////////////////////////////////////////////////////////////////////////
///// 1.2-INPUT
////////////////////////////////////////////////////////////////////////
////////////////////////////////////////////////////////////////////////
/////// 1.2.1-DATA
////////////////////////////////////////////////////////////////////////
NOM = 'FICHIER DE GEOMETRIE'
NOM1 = 'GEOMETRY FILE'
TYPE = STRING
INDEX = 6
TAILLE = 1
SUBMIT = 'T3DGEO-READ;T3DGEO;OBLIG;BIN;LIT;SELAFIN-GEOM'
MNEMO = 'T3D\_FILES(T3DGEO)\%NAME'
RUBRIQUE =
'ENVIRONNEMENT DE CALCUL';'ENTREE';'DONNEES'
RUBRIQUE1 =
'COMPUTATION ENVIRONMENT';'INPUT';'DATA'
COMPORT =
'Foreground ("ENTREES-SORTIES, FICHIERS*NOMS")
IS BRUT (red)'
NIVEAU = 0
AIDE =
'Nom du fichier contenant le maillage du calcul a realiser.'
AIDE1 =
'Name of the file containing the mesh. This file may also
contain the topography and the friction coefficients.'
/
NOM = 'FORMAT DU FICHIER DE GEOMETRIE'
NOM1 = 'GEOMETRY FILE FORMAT'
TYPE = STRING
INDEX = 29
TAILLE = 1
DEFAUT = 'SERAFIN'
DEFAUT1 = 'SERAFIN'
MNEMO = 'T3D\_FILES(T3DGEO)\%FMT'
CHOIX =
'SERAFIN';
'SERAFIND';
'MED'
CHOIX1 =
'SERAFIN';
'SERAFIND';
'MED'
RUBRIQUE =
'ENVIRONNEMENT DE CALCUL';'ENTREE';'DONNEES'
RUBRIQUE1 =
'COMPUTATION ENVIRONMENT';'INPUT';'DATA'
NIVEAU = 0
AIDE =
'Format du \telkey{FICHIER DE GEOMETRIE}.
Les valeurs possibles sont :
\begin{itemize}
\item SERAFIN : format standard simple precision pour \tel ;
\item SERAFIND: format standard double precision pour \tel ;
\item MED     : format MED double precision base sur HDF5.
\end{itemize}'
AIDE1 =
'Format of the \telkey{GEOMETRY FILE}.
Possible choices are:
\begin{itemize}
\item SERAFIN : classical single precision format in \tel,
\item SERAFIND: classical double precision format in \tel,
\item MED     : MED double precision format based on HDF5.
\end{itemize}'
/
NOM = 'FICHIER DES CONDITIONS AUX LIMITES'
NOM1 = 'BOUNDARY CONDITIONS FILE'
TYPE = STRING
INDEX = 9
TAILLE = 1
SUBMIT = 'T3DLIM-READ;T3DCLI;OBLIG;ASC;LIT;CONLIM'
MNEMO = 'T3D\_FILES(T3DCLI)\%NAME'
RUBRIQUE =
'ENVIRONNEMENT DE CALCUL';'ENTREE';'DONNEES'
RUBRIQUE1 =
'COMPUTATION ENVIRONMENT';'INPUT';'DATA'
NIVEAU = 0
AIDE =
'Nom du fichier contenant les types de conditions aux limites.
Ce fichier est rempli de facon automatique par le mailleur au moyen de
couleurs affectees aux noeuds des frontieres du domaine de calcul.'
AIDE1 =
'Name of the file containing the types of boundary conditions.
This file is filled automatically by the mesh generator through
colours that are assigned to the boundary nodes.'
/
NOM = 'FICHIER BINAIRE DE DONNEES DE FRONTIERE'
NOM1 = 'BINARY BOUNDARY DATA FILE'
TYPE = STRING
INDEX = 32
TAILLE = 1
SUBMIT = 'T3DBND-READ;T3DBND;FACUL;BIN;LIT;PARAL'
DEFAUT = ''
DEFAUT1 = ''
MNEMO = 'T3D\_FILES(T3DBND)\%NAME'
RUBRIQUE =
'ENVIRONNEMENT DE CALCUL';'ENTREE';'DONNEES'
RUBRIQUE1 =
'COMPUTATION ENVIRONMENT';'INPUT';'DATA'
NIVEAU = 1
AIDE =
'Fichier de donnees code en binaire contenant les informations
de conditions aux limites variables en temps et en espace
provenant de jeux de donnees externes par exemple.'
AIDE1 =
'Binary-coded data file containing the boundary conditions data
varying in time and space.'
/
NOM = 'FORMAT DU FICHIER BINAIRE DE DONNEES DE FRONTIERE'
NOM1 = 'BINARY BOUNDARY DATA FILE FORMAT'
TYPE = STRING
INDEX = 23
TAILLE = 1
DEFAUT = 'SERAFIN'
DEFAUT1 = 'SERAFIN'
MNEMO = 'T3D\_FILES(T3DBND)\%FMT'
CHOIX =
'SERAFIN';
'SERAFIND';
'MED'
CHOIX1 =
'SERAFIN';
'SERAFIND';
'MED'
RUBRIQUE =
'ENVIRONNEMENT DE CALCUL';'ENTREE';'DONNEES'
RUBRIQUE1 =
'COMPUTATION ENVIRONMENT';'INPUT';'DATA'
NIVEAU = 2
AIDE =
'Format du \telkey{FICHIER BINAIRE DE DONNEES DE FRONTIERE}.
Les valeurs possibles sont :
\begin{itemize}
\item SERAFIN : format standard simple precision pour \tel ;
\item SERAFIND: format standard double precision pour \tel ;
\item MED     : format MED base sur HDF5.
\end{itemize}'
AIDE1 =
'Format of the \telkey{BINARY BOUNDARY DATA FILE}.
Possible values are:
\begin{itemize}
\item SERAFIN : classical single precision format in \tel,
\item SERAFIND: classical double precision format in \tel,
\item MED     : MED format based on HDF5.
\end{itemize}'
/
NOM = 'FICHIER FORTRAN'
NOM1 = 'FORTRAN FILE'
TYPE = STRING
INDEX = 7
TAILLE = 1
SUBMIT = 'INUTILE;INUTILE;FACUL;ASC;LIT;FORTRAN'
DEFAUT = ''
DEFAUT1 = ''
MNEMO = 'T3D\_FILES(T3DFORT)\%NAME'
APPARENCE =
'FILE_OR_FOLDER'
RUBRIQUE =
'ENVIRONNEMENT DE CALCUL';'ENTREE';'DONNEES'
RUBRIQUE1 =
'COMPUTATION ENVIRONMENT';'INPUT';'DATA'
NIVEAU = 1
AIDE =
'Nom du fichier ou repertoire FORTRAN a soumettre,
contenant les sous-programmes specifiques au modele.'
AIDE1 =
'Name of the FORTRAN file or directory to be submitted,
including specific subroutines of the model.'
/
NOM = 'FICHIER DES FONDS'
NOM1 = 'BOTTOM TOPOGRAPHY FILE'
TYPE = STRING
INDEX = 16
TAILLE = 1
SUBMIT = 'T3DFON-READ;T3DFON;FACUL;ASC;LIT;SCAL'
DEFAUT = ''
DEFAUT1 = ''
MNEMO = 'T3D\_FILES(T3DFON)\%NAME'
RUBRIQUE =
'ENVIRONNEMENT DE CALCUL';'ENTREE';'DONNEES'
RUBRIQUE1 =
'COMPUTATION ENVIRONMENT';'INPUT';'DATA'
NIVEAU = 1
AIDE =
'Nom du fichier eventuel contenant la bathymetrie associee au
maillage.
Si ce mot-cle est utilise, c''est cette bathymetrie qui sera utilisee
pour le calcul.'
AIDE1 =
'Name of the possible file containing the bathymetric data.
Where this keyword is used, these bathymetric data shall be used in
the computation.'
/
NOM = 'NOMBRE DE LISSAGES DU FOND'
NOM1 = 'NUMBER OF BOTTOM SMOOTHINGS'
TYPE = INTEGER
INDEX = 11
TAILLE = 1
DEFAUT = 0
DEFAUT1 = 0
MNEMO = 'LISFON'
RUBRIQUE =
'ENVIRONNEMENT DE CALCUL';'ENTREE';'DONNEES'
RUBRIQUE1 =
'COMPUTATION ENVIRONMENT';'INPUT';'DATA'
COMPORT =
'Foreground ("EQUATIONS*LISSAGE")
IS BRUT (brown)'
NIVEAU = 0
AIDE =
'Nombre de lissages effectues sur la topographie.
Chaque lissage, effectue a l''aide d''une matrice de masse,
est conservatif.
Utilise lorsque les donnees de bathymetrie donnent des resultats
trop irreguliers apres interpolation.'
AIDE1 =
'Number of smoothings on bottom topography.
Each smoothing is mass conservative.
To be used when interpolation of bathymetry on the mesh gives
very rough results.'
/
NOM = 'LISSAGES DU FOND APRES MODIFICATIONS UTILISATEUR'
NOM1 = 'BOTTOM SMOOTHINGS AFTER USER MODIFICATIONS'
TYPE = LOGICAL
INDEX = 60
TAILLE = 1
DEFAUT = OUI
DEFAUT1 = YES
MNEMO = 'LISFON\_AFTER'
RUBRIQUE =
'ENVIRONNEMENT DE CALCUL';'ENTREE';'DONNEES'
RUBRIQUE1 =
'COMPUTATION ENVIRONMENT';'INPUT';'DATA'
NIVEAU = 0
AIDE =
'Indique si le nombre d eventuels lissages sur la topographie est
effectue apres (ou sinon avant) les modifications de topographie
apportees par l utilisateur.'
AIDE1 =
'Indicates if the number of potential smoothings on bottom topography
is done after (or before otherwise) the topography modifications
implemented by the user.'
/
NOM = 'FICHIER DE DONNEES FORMATE 1'
NOM1 = 'FORMATTED DATA FILE 1'
TYPE = STRING
INDEX = 19
TAILLE = 1
SUBMIT = 'T3DFO1-READ;T3DFO1;FACUL;ASC;LIT;SCAL'
DEFAUT = ''
DEFAUT1 = ''
MNEMO = 'T3D\_FILES(T3DFO1)\%NAME'
RUBRIQUE =
'ENVIRONNEMENT DE CALCUL';'ENTREE';'DONNEES'
RUBRIQUE1 =
'COMPUTATION ENVIRONMENT';'INPUT';'DATA'
NIVEAU = 1
AIDE =
'Fichier de donnees formate mis a la disposition de
l''utilisateur.'
AIDE1 =
'Formatted data file available to the user.'
/
NOM = 'FICHIER DE DONNEES FORMATE 2'
NOM1 = 'FORMATTED DATA FILE 2'
TYPE = STRING
INDEX = 20
TAILLE = 1
SUBMIT = 'T3DFO2-READ;T3DFO2;FACUL;ASC;LIT;SCAL'
DEFAUT = ''
DEFAUT1 = ''
MNEMO = 'T3D\_FILES(T3DFO2)\%NAME'
RUBRIQUE =
'ENVIRONNEMENT DE CALCUL';'ENTREE';'DONNEES'
RUBRIQUE1 =
'COMPUTATION ENVIRONMENT';'INPUT';'DATA'
NIVEAU = 1
AIDE =
'Fichier de donnees formate mis a la disposition de
l''utilisateur.'
AIDE1 =
'Formatted data file available to the user.'
/
NOM = 'FICHIER DE DONNEES BINAIRE 1'
NOM1 = 'BINARY DATA FILE 1'
TYPE = STRING
INDEX = 21
TAILLE = 1
SUBMIT = 'T3DBI1-READ;T3DBI1;FACUL;BIN;LIT;SELAFIN'
DEFAUT = ''
DEFAUT1 = ''
MNEMO = 'T3D\_FILES(T3DBI1)\%NAME'
RUBRIQUE =
'ENVIRONNEMENT DE CALCUL';'ENTREE';'DONNEES'
RUBRIQUE1 =
'COMPUTATION ENVIRONMENT';'INPUT';'DATA'
NIVEAU = 1
AIDE =
'Fichier de donnees code en binaire mis a la disposition
de l''utilisateur.'
AIDE1 =
'Data file in binary mode available to the user.'
/
NOM = 'FORMAT DU FICHIER DE DONNEES BINAIRE 1'
NOM1 = 'BINARY DATA FILE 1 FORMAT'
TYPE = STRING
INDEX = 79
TAILLE = 1
DEFAUT = 'SERAFIN'
DEFAUT1 = 'SERAFIN'
MNEMO = 'T3D\_FILES(T3DBI1)\%FMT'
CHOIX =
'SERAFIN';
'SERAFIND';
'MED'
CHOIX1 =
'SERAFIN';
'SERAFIND';
'MED'
RUBRIQUE =
'ENVIRONNEMENT DE CALCUL';'ENTREE';'DONNEES'
RUBRIQUE1 =
'COMPUTATION ENVIRONMENT';'INPUT';'DATA'
NIVEAU = 2
AIDE =
'Format du \telkey{FICHIER DE DONNEES BINAIRE 1}.
Les valeurs possibles sont :
\begin{itemize}
\item SERAFIN : format standard simple precision pour \tel ;
\item SERAFIND: format standard double precision pour \tel ;
\item MED     : format MED double precision base sur HDF5.
\end{itemize}'
AIDE1 =
'Format of the \telkey{BINARY DATA FILE 1}.
Possible choices are:
\begin{itemize}
\item SERAFIN : classical single precision format in \tel,
\item SERAFIND: classical double precision format in \tel,
\item MED     : MED double precision format based on HDF5.
\end{itemize}'
/
NOM = 'FICHIER DE DONNEES BINAIRE 2'
NOM1 = 'BINARY DATA FILE 2'
TYPE = STRING
INDEX = 22
TAILLE = 1
SUBMIT = 'T3DBI2-READ;T3DBI2;FACUL;BIN;LIT;SCAL'
DEFAUT = ''
DEFAUT1 = ''
MNEMO = 'T3D\_FILES(T3DBI2)\%NAME'
RUBRIQUE =
'ENVIRONNEMENT DE CALCUL';'ENTREE';'DONNEES'
RUBRIQUE1 =
'COMPUTATION ENVIRONMENT';'INPUT';'DATA'
NIVEAU = 1
AIDE =
'Fichier de donnees code en binaire mis a la disposition
de l''utilisateur.'
AIDE1 =
'Data file in binary mode available to the user.'
/
NOM = 'VALIDATION'
NOM1 = 'VALIDATION'
TYPE = LOGICAL
INDEX = 19
TAILLE = 1
DEFAUT = NON
DEFAUT1 = NO
MNEMO = 'VALID'
RUBRIQUE =
'ENVIRONNEMENT DE CALCUL';'ENTREE';'DONNEES'
RUBRIQUE1 =
'COMPUTATION ENVIRONMENT';'INPUT';'DATA'
NIVEAU = 1
AIDE =
'Option utilisee principalement pour le dossier de validation. Le
\telkey{FICHIER DE REFERENCE} est alors considere comme une
reference a laquelle on va comparer le calcul. La comparaison est
effectuee par le sous-programme \telfile{BIEF\_VALIDA}
qui peut etre une comparaison avec une solution exacte par exemple.'
AIDE1 =
'This option is primarily used for the validation documents.
The \telkey{REFERENCE FILE} is then considered as a reference
which the computation is going to be compared with.
The comparison is done by the subroutine \telfile{BIEF\_VALIDA},
which can be modified so as to include, for example,
a comparison with an exact solution.'
/
NOM = 'FICHIER DE REFERENCE'
NOM1 = 'REFERENCE FILE'
TYPE = STRING
INDEX = 55
TAILLE = 1
SUBMIT = 'T3DREF-READ;T3DREF;FACUL;BIN;LIT;SELAFIN'
DEFAUT = ''
DEFAUT1 = ''
MNEMO = 'T3D\_FILES(T3DREF)\%NAME'
APPARENCE =
'LISTE IS FICHIER'
RUBRIQUE =
'ENVIRONNEMENT DE CALCUL';'ENTREE';'DONNEES'
RUBRIQUE1 =
'COMPUTATION ENVIRONMENT';'INPUT';'DATA'
NIVEAU = 1
AIDE =
'Fichier de resultats de reference pour la validation.'
AIDE1 =
'Binary-coded result file for validation.'
/
NOM = 'FORMAT DU FICHIER DE REFERENCE'
NOM1 = 'REFERENCE FILE FORMAT'
TYPE = STRING
INDEX = 78
TAILLE = 1
DEFAUT = 'SERAFIN'
DEFAUT1 = 'SERAFIN'
MNEMO = 'T3D\_FILES(T3DREF)\%FMT'
CHOIX =
'SERAFIN';
'SERAFIND';
'MED'
CHOIX1 =
'SERAFIN';
'SERAFIND';
'MED'
RUBRIQUE =
'ENVIRONNEMENT DE CALCUL';'ENTREE';'DONNEES'
RUBRIQUE1 =
'COMPUTATION ENVIRONMENT';'INPUT';'DATA'
NIVEAU = 0
AIDE =
'Format du \telkey{FICHIER DE REFERENCE}.
Les valeurs possibles sont :
\begin{itemize}
\item SERAFIN : format standard simple precision pour \tel ;
\item SERAFIND: format standard double precision pour \tel ;
\item MED     : format MED double precision base sur HDF5.
\end{itemize}'
AIDE1 =
'Format of the \telkey{REFERENCE FILE}.
Possible choices are:
\begin{itemize}
\item SERAFIN : classical single precision format in \tel,
\item SERAFIND: classical double precision format in \tel,
\item MED     : MED double precision format based on HDF5.
\end{itemize}'
/
////////////////////////////////////////////////////////////////////////
///// 1.3-OUTPUT
////////////////////////////////////////////////////////////////////////
////////////////////////////////////////////////////////////////////////
/////// 1.3.1-RESULTS
////////////////////////////////////////////////////////////////////////
NOM = 'FICHIER DES RESULTATS 3D'
NOM1 = '3D RESULT FILE'
TYPE = STRING
INDEX = 11
TAILLE = 1
SUBMIT = 'T3DRES-WRITE;T3DRES;FACUL;BIN;ECR;SELAFIN'
DEFAUT = ''
DEFAUT1 = ''
MNEMO = 'T3D\_FILES(T3DRES)\%NAME'
RUBRIQUE =
'ENVIRONNEMENT DE CALCUL';'SORTIE';'RESULTATS'
RUBRIQUE1 =
'COMPUTATION ENVIRONMENT';'OUTPUT';'RESULTS'
NIVEAU = 0
AIDE =
'Nom du fichier dans lequel seront ecrits les resultats 3D du
calcul avec la periodicite donnee par le mot cle \telkey{PERIODE POUR
LES SORTIES GRAPHIQUES}.'
AIDE1 =
'Name of the file into which the 3D results of the computation
are written with a periodicity given by the keyword
\telkey{GRAPHIC PRINTOUT PERIOD}.'
/
NOM = 'FORMAT DU FICHIER DES RESULTATS 3D'
NOM1 = '3D RESULT FILE FORMAT'
TYPE = STRING
INDEX = 30
TAILLE = 1
DEFAUT = 'SERAFIN'
DEFAUT1 = 'SERAFIN'
MNEMO = 'T3D\_FILES(T3DRES)\%FMT'
CHOIX =
'SERAFIN';
'SERAFIND';
'MED'
CHOIX1 =
'SERAFIN';
'SERAFIND';
'MED'
RUBRIQUE =
'ENVIRONNEMENT DE CALCUL';'SORTIE';'RESULTATS'
RUBRIQUE1 =
'COMPUTATION ENVIRONMENT';'OUTPUT';'RESULTS'
NIVEAU = 0
AIDE =
'Format du \telkey{FICHIER DES RESULTATS 3D}.
Les valeurs possibles sont :
\begin{itemize}
\item SERAFIN : format standard simple precision pour \tel ;
\item SERAFIND: format standard double precision pour \tel ;
\item MED     : format MED double precision base sur HDF5.
\end{itemize}'
AIDE1 =
'Format of the \telkey{3D RESULT FILE}. Possible choices are:
\begin{itemize}
\item SERAFIN : classical single precision format in \tel,
\item SERAFIND: classical double precision format in \tel,
\item MED     : MED double precision format based on HDF5.
\end{itemize}'
/
NOM = 'FICHIER DES RESULTATS 2D'
NOM1 = '2D RESULT FILE'
TYPE = STRING
INDEX = 18
TAILLE = 1
SUBMIT = 'T3DHYD-WRITE;T3DHYD;FACUL;BIN;ECR;SELAFIN'
DEFAUT = ''
DEFAUT1 = ''
MNEMO = 'T3D\_FILES(T3DHYD)\%NAME'
RUBRIQUE =
'ENVIRONNEMENT DE CALCUL';'SORTIE';'RESULTATS'
RUBRIQUE1 =
'COMPUTATION ENVIRONMENT';'OUTPUT';'RESULTS'
NIVEAU = 1
AIDE =
'Nom du fichier dans lequel seront ecrits les resultats 2D du
calcul avec la periodicite donnee par le mot cle \telkey{PERIODE POUR
LES SORTIES GRAPHIQUES}.'
AIDE1 =
'Name of the file into which the 2D results of the computation
are written with a periodicity given by the keyword
\telkey{GRAPHIC PRINTOUT PERIOD}.'
/
NOM = 'FORMAT DU FICHIER DES RESULTATS 2D'
NOM1 = '2D RESULT FILE FORMAT'
TYPE = STRING
INDEX = 28
TAILLE = 1
DEFAUT = 'SERAFIN'
DEFAUT1 = 'SERAFIN'
MNEMO = 'T3D\_FILES(T3DHYD)\%FMT'
CHOIX =
'SERAFIN';
'SERAFIND';
'MED'
CHOIX1 =
'SERAFIN';
'SERAFIND';
'MED'
RUBRIQUE =
'ENVIRONNEMENT DE CALCUL';'SORTIE';'RESULTATS'
RUBRIQUE1 =
'COMPUTATION ENVIRONMENT';'OUTPUT';'RESULTS'
NIVEAU = 1
AIDE =
'Format du \telkey{FICHIER DES RESULTATS 2D}.
Les valeurs possibles sont :
\begin{itemize}
\item SERAFIN : format standard simple precision pour \tel ;
\item SERAFIND: format standard double precision pour \tel ;
\item MED     : format MED double precision base sur HDF5.
\end{itemize}'
AIDE1 =
'Format of the \telkey{2D RESULT FILE}. Possible choices are:
\begin{itemize}
\item SERAFIN : classical single precision format in \tel,
\item SERAFIND: classical double precision format in \tel,
\item MED     : MED double precision format based on HDF5.
\end{itemize}'
/
NOM = 'FICHIER RESULTAT EN LONGITUDE-LATITUDE'
NOM1 = 'RESULT FILE IN LONGITUDE-LATITUDE'
TYPE = LOGICAL
INDEX = 31
TAILLE = 1
DEFAUT = OUI
DEFAUT1 = YES
MNEMO = 'KEEP\_LONLAT'
RUBRIQUE =
'ENVIRONNEMENT DE CALCUL';'SORTIE';'RESULTATS'
RUBRIQUE1 =
'COMPUTATION ENVIRONMENT';'OUTPUT';'RESULTS'
NIVEAU = 1
AIDE =
'Donne les coordonnees dans le fichier resultats en longitude-latitude
si le fichier de geometrie est aussi donne en longitude-latitude.'
AIDE1 =
'Gives the coordinates of the result file in longitude-latitude
if the geometry file is also given in longitude-latitude.'
/
NOM = 'VARIABLES POUR LES SORTIES GRAPHIQUES 3D'
NOM1 = 'VARIABLES FOR 3D GRAPHIC PRINTOUTS'
TYPE = STRING
INDEX = 2
TAILLE = 1
DEFAUT = 'Z,U,V,W'
DEFAUT1 = 'Z,U,V,W'
MNEMO = 'SORT3D'
CHOIX =
'U="vitesse suivant l axe des x (m/s)"';
'V="vitesse suivant l axe des y (m/s)"';
'W="vitesse suivant l axe des z (m/s)"';
'Z="cote z (m)"';
'TAi="concentrations du traceur i"';
'TA*="concentrations des traceurs de 1 a 9"';
'TA**="concentrations des traceurs de 10 a 99"';
'NUX="viscosite pour U et V suivant l axe des x (m2/s)"';
'NUY="viscosite pour U et V suivant l axe des y (m2/s)"';
'NUZ="viscosite pour U et V suivant l axe des z (m2/s)"';
'NAXi="viscosites pour le tr. i suivant l axe des x (m2/s)"';
'NAYi="viscosites pour le tr. i suivant l axe des y (m2/s)"';
'NAZi="viscosites pour le tr. i suivant l axe des z (m2/s)"';
'RI="nombre de Richardson en cas de modele de longueur de melange"';
'K="energie turbulente du modele k-epsilon (J/kg)"';
'EPS="dissipation de l energie turbulente (W/kg)"';
'DP="pression dynamique (multipliee par DT/RHO)"';
'PH="pression hydrostatique (en Pascals)"';
'RHO="densite relative"';
'WDIST="distance a la paroi"';
'P1="variable privee 1"';
'P2="variable privee 2"';
'P3="variable privee 3"';
'P4="variable privee 4"';
'US="vitesse de Stokes suivant l axe des x (m/s)"';
'VS="vitesse de Stokes suivant l axe des y (m/s)"';
'WS="vitesse de Stokes suivant l axe des z (m/s)"'
CHOIX1 =
'U="velocity along x axis (m/s)"';
'V="velocity along y axis (m/s)"';
'W="velocity along z axis (m/s)"';
'Z="elevation z (m)"';
'TAi="concentrations for tracer i"';
'TA*="concentrations for tracers from 1 to 9"';
'TA**="concentrations for tracers from 10 to 99"';
'NUX="viscosity for U and V along x axis (m2/s)"';
'NUY="viscosity for U and V along y axis (m2/s)"';
'NUZ="viscosity for U and V along z axis (m2/s)"';
'NAXi="viscosity for tracer i along x axis (m2/s)"';
'NAYi="viscosity for tracer i along y axis (m2/s)"';
'NAZi="viscosity for tracer i along z axis (m2/s)"';
'RI="Richardson number in case of mixing length model"';
'K="turbulent energie for k-epsilon model (J/kg)"';
'EPS="dissipation of turbulent energie (W/kg)"';
'DP="dynamic pressure (multiplied by DT/RHO)"';
'PH="hydrostatic pressure (in Pascals)"';
'RHO="relative density"';
'WDIST="wall distance"';
'P1="private variable 1"';
'P2="private variable 2"';
'P3="private variable 3"';
'P4="private variable 4"';
'US="Stokes velocity along x axis (m/s)"';
'VS="Stokes velocity along y axis (m/s)"';
'WS="Stokes velocity along z axis (m/s)"'
APPARENCE =
'DYNLIST'
RUBRIQUE =
'ENVIRONNEMENT DE CALCUL';'SORTIE';'RESULTATS'
RUBRIQUE1 =
'COMPUTATION ENVIRONMENT';'OUTPUT';'RESULTS'
COMPOSE = ','
NIVEAU = 0
AIDE =
'Noms des variables que l''utilisateur veut ecrire dans
le \telkey{FICHIER DES RESULTATS 3D}.
Le choix des separateurs est libre.
Les possibilites offertes sont les suivantes :
\begin{itemize}
\item U   : vitesse suivant l''axe des $x$ (m/s) ;
\item V   : vitesse suivant l''axe des $y$ (m/s) ;
\item W   : vitesse suivant l''axe des $z$ (m/s) ;
\item Z   : cote $z$ (m) ;
\item TAx : concentrations des traceurs ;
\item NUX : viscosite pour $U$ et $V$ suivant l''axe des $x$ (m$^2$/s) ;
\item NUY : viscosite pour $U$ et $V$ suivant l''axe des $y$ (m$^2$/s) ;
\item NUZ : viscosite pour $U$ et $V$ suivant l''axe des $z$ (m$^2$/s) ;
\item NAX : viscosites pour les traceurs suivant l''axe des $x$
(m$^2$/s) ;
\item NAY : viscosites pour les traceurs suivant l''axe des $y$
(m$^2$/s) ;
\item NAZ : viscosites pour les traceurs suivant l''axe des $z$
(m$^2$/s) ;
\item RI  : nombre de Richardson en cas de modele de longueur de
melange ;
\item K   : energie turbulente du modele k-epsilon (J/kg) ;
\item EPS : dissipation de l''energie turbulente (W/kg) ;
\item DP  : pression dynamique (multipliee par DT/RHO) ;
\item PH  : pression hydrostatique (en Pascals) ;
\item RHO : densite relative ;
\item P1  : variable privee 1 ;
\item P2  : variable privee 2 ;
\item P3  : variable privee 3 ;
\item P4  : variable privee 4 ;
\item US  : vitesse de Stokes suivant l''axe des $x$ (m/s) ;
\item VS  : vitesse de Stokes suivant l''axe des $y$ (m/s) ;
\item WS  : vitesse de Stokes suivant l''axe des $z$ (m/s).
\end{itemize}'
AIDE1 =
'Names of variables to be written in the
\telkey{3D RESULT FILE}. Free choice of separator. You can ask for:
\begin{itemize}
\item U  : velocity along $x$ (m/s),
\item V  : velocity along $y$ (m/s),
\item W  : velocity along $z$ (m/s),
\item Z  : elevation $z$ (m),
\item TAx: concentration of tracers,
\item NUX: viscosity for $U$ and $V$ along $x$ (m$^2$/s),
\item NUY: viscosity for $U$ and $V$ along $y$ (m$^2$/s),
\item NUZ: viscosity for $U$ and $V$ along $z$ (m$^2$/s),
\item NAX: viscosity for tracers along $x$ (m$^2$/s),
\item NAY: viscosity for tracers along $y$ (m$^2$/s),
\item NAZ: viscosity for tracers along $z$ (m$^2$/s),
\item RI : Richardson number for mixing length model,
\item K  : turbulent kinetic energy for $k$-$\epsilon$ model (J/kg),
\item EPS: dissipation of turbulent kinetic energy (W/kg),
\item DP : dynamic pressure (multiplied by DT/RHO),
\item PH : hydrostatic pressure (Pa),
\item RHO: relative density,
\item P1 : private variable 1,
\item P2 : private variable 2,
\item P3 : private variable 3,
\item P4 : private variable 4,
\item US : Stokes velocity along $x$ axis (m/s),
\item VS : Stokes velocity along $y$ axis (m/s),
\item WS : Stokes velocity along $z$ axis (m/s).
\end{itemize}'
/
NOM = 'VARIABLES POUR LES SORTIES GRAPHIQUES 2D'
NOM1 = 'VARIABLES FOR 2D GRAPHIC PRINTOUTS'
TYPE = STRING
INDEX = 3
TAILLE = 1
DEFAUT = 'U,V,H,B'
DEFAUT1 = 'U,V,H,B'
MNEMO = 'SORT2D'
CHOIX =
'U="vitesse moyenne suivant l axe des x (m/s)"';
'V="vitesse moyenne suivant l axe des y (m/s)"';
'C="celerite (m/s)"';
'H="hauteur d eau (m)"';
'S="cote de surface libre (m)"';
'B="cote du fond (m)"';
'TAi="concentrations du traceur i"';
'TA*="concentrations des traceurs de 1 a 9"';
'TA**="concentrations des traceurs de 10 a 99"';
'F="nombre de Froude"';
'Q="debit scalaire (m2/s)"';
'I="debit suivant x (m2/s)"';
'J="debit suivant y (m2/s)"';
'M="norme de la vitesse (m/s)"';
'X="vent suivant l axe des x (m/s)"';
'Y="vent suivant l axe des y (m/s)"';
'P="pression atmospherique (Pa)"';
'W="coefficient de frottement"';
'RB="cote des fonds non erodables (m)"';
'HD="epaisseur du lit de sediment (m)"';
'EF="flux d erosion (kg/m2/s)"';
'DF="flux de Depot (kg/m2/s)"';
'DZF="evolution du lit"';
'PRIVE1="tableau de travail PRIVE 1"';
'PRIVE2="tableau de travail PRIVE 2"';
'PRIVE3="tableau de travail PRIVE 3"';
'PRIVE4="tableau de travail PRIVE 4"';
'QS="debit solide (m2/s)"';
'QSX="debit solide suivant x (m2/s)"';
'QSY="debit solide suivant y (m2/s)"';
'US="vitesse de frottement (m/s)"';
'MAXZ="valeur maximum de la cote de l eau au cours du calcul (m)"';
'TMXZ="temps correspondant a ce niveau maximum (s)"';
'TAIR="temperature de l air (degre C)"';
'USURF="vitesse en surface suivant l axe des x (m/s)"';
'VSURF="vitesse en surface suivant l axe des y (m/s)"';
'WSURF="vitesse en surface suivant l axe des z (m/s)"';
'MSURF="norme de la vitesse en surface (m/s)"';
'TASURFi="TAi conc des traceurs en surface, i numero du traceur"';
'TASURF*="TA concentrations des traceurs en surface de 1 a 9"';
'TASURF**="TA concentrations des traceurs en surface de 10 a 99"'
CHOIX1 =
'U="depth averaged velocity along x axis (m/s)"';
'V="depth averaged velocity along y axis (m/s)"';
'C="celerity (m/s)"';
'H="water depth (m)"';
'S="free surface elevation (m)"';
'B="bottom elevation (m)"';
'TAi="concentrations for tracer i"';
'TA*="concentrations for tracers from 1 to 9"';
'TA**="concentrations for tracers from 10 to 99"';
'F="Froude number"';
'Q="scalar discharge (m2/s)"';
'I="discharge along x (m2/s)"';
'J="discharge along y (m2/s)"';
'M="norm of velocity (m/s)"';
'X="wind along x axis (m/s)"';
'Y="wind along y axis (m/s)"';
'P="atmospheric pressure (Pa)"';
'W="friction coefficient"';
'RB="non erodible bottom elevation (m)"';
'HD="thickness of the sediment bed layer (m)"';
'EF="erosion rate (kg/m2/s)"';
'DF="deposition flux (kg/m2/s)"';
'DZF="bed evolution"';
'PRIVE1="work array PRIVE 1"';
'PRIVE2="work array PRIVE 2"';
'PRIVE3="work array PRIVE 3"';
'PRIVE4="work array PRIVE 4"';
'QS="solid discharge (m2/s)"';
'QSX="solid discharge along x (m2/s)"';
'QSY="solid discharge along y (m2/s)"';
'US="friction velocity (m/s)"';
'MAXZ="maximum value of the free surface elevation (m)"';
'TMXZ="time corresponding to this maximum elevation (s)"';
'TAIR="air temperature (degree C)"';
'USURF="surface velocity along x axis (m/s)"';
'VSURF="surface velocity along y axis (m/s)"';
'WSURF="surface velocity along z axis (m/s)"';
'MSURF="magnitude of velocity at the surface (m/s)"';
'TASURFi="TAi conc for tracers at the surface, i is the tracer number"';
'TASURF*="TA concentrations for tracers at the surface from 1 to 9"';
'TASURF**="TA concentrations for tracers at the surface from 10 to 99"'
APPARENCE =
'DYNLIST'
RUBRIQUE =
'ENVIRONNEMENT DE CALCUL';'SORTIE';'RESULTATS'
RUBRIQUE1 =
'COMPUTATION ENVIRONMENT';'OUTPUT';'RESULTS'
COMPOSE = ','
NIVEAU = 0
AIDE =
'Noms des variables que l''utilisateur veut ecrire dans
le \telkey{FICHIER DES RESULTATS 2D}.
Chaque variable est representee par une lettre.
Le choix des separateurs est libre.
Les possibilites offertes sont les suivantes :
\begin{itemize}
\item U : vitesse moyenne suivant l''axe des x (m/s) ;
\item V : vitesse moyenne suivant l''axe des y (m/s) ;
\item C : celerite (m/s) ;
\item H : hauteur d''eau (m) ;
\item S : cote de surface libre (m) ;
\item B : cote du fond (m) ;
\item TAi : TAi concentrations des traceurs, i numero du traceur ;
\item TA* : TA concentrations des traceurs de 1 a 9 ;
\item TA** : TA concentrations des traceurs de 10 a 99 ;
\item F : nombre de Froude ;
\item Q : debit scalaire (m$^2$/s) ;
\item I : debit suivant x (m$^2$/s) ;
\item J : debit suivant y (m$^2$/s) ;
\item M : norme de la vitesse (m/s) ;
\item X : vent suivant l''axe des x (m/s) ;
\item Y : vent suivant l''axe des y (m/s) ;
\item P : pression atmospherique (Pa) ;
\item W : coefficient de frottement ;
\item RB : cote des fonds non erodables (m) ;
\item HD : epaisseur des depots frais (m) ;
\item EF : flux d''erosion (kg/m$^2$/s) ;
\item DF : probabilite de depot (kg/m$^2$/s) ;
\item DZF : evolution du lit ;
\item PRIVE1 : tableau de travail PRIVE 1 ;
\item PRIVE2 : tableau de travail PRIVE 2 ;
\item PRIVE3 : tableau de travail PRIVE 3 ;
\item PRIVE4 : tableau de travail PRIVE 4 ;
\item QS : debit solide (m$^2$/s) ;
\item QSX : debit solide suivant x (m$^2$/s) ;
\item QSY : debit solide suivant y (m$^2$/s) ;
\item US : vitesse de frottement (m/s) ;
\item MAXZ : valeur maximum de la cote de l eau au cours du calcul (m) ;
\item TMXZ : temps correspondant a ce niveau maximum (s) ;
\item TAIR : temperature de l air ($^{\circ}$C) ;
\item USURF : vitesse en surface suivant l''axe des x (m/s) ;
\item VSURF : vitesse en surface suivant l''axe des y (m/s) ;
\item WSURF : vitesse en surface suivant l''axe des z (m/s) ;
\item MSURF : norme de la vitesse en surface (m/s) ;
\item TASURFi : TAi conc des traceurs en surface, i numero du traceur ;
\item TASURF* : TA concentrations des traceurs en surface de 1 a 9 ;
\item TASURF** : TA concentrations des traceurs en surface de 10 a 99.
\end{itemize}'
AIDE1 =
'Names of variables that may be written in the
\telkey{2D RESULT FILE}.
Every variable is represented by a group of letters with
any separator between them , ; or blank
possibilities are the following:
\begin{itemize}
\item U: depth averaged velocity along x axis (m/s),
\item V: depth averaged velocity along y axis (m/s),
\item C: celerity (m/s),
\item H: water depth (m),
\item S: free surface elevation (m),
\item B: bottom elevation (m),
\item TAi: TAi concentrations for tracers, i is the tracer number,
\item TA*: TA concentrations for tracers from 1 to 9,
\item TA**: TA concentrations for tracers from 10 to 99,
\item F: Froude number,
\item Q: scalar discharge (m$^2$/s),
\item I: discharge along x (m$^2$/s),
\item J: discharge along y (m$^2$/s),
\item M: norm of velocity (m/s),
\item X: wind along x axis (m/s),
\item Y: wind along y axis (m/s),
\item P: atmospheric pressure (Pa),
\item W: friction coefficient,
\item RB: non erodible bottom elevation (m),
\item HD: thickness of the fresh deposits (m),
\item EF: erosion rate (kg/m$^2$/s),
\item DF: probability of deposition (kg/m$^2$/s),
\item DZF : bed evolution,
\item PRIVE1: work array PRIVE 1,
\item PRIVE2: work array PRIVE 2,
\item PRIVE3: work array PRIVE 3,
\item PRIVE4: work array PRIVE 4,
\item QS: solid discharge (m$^2$/s),
\item QSX: solid discharge along x (m$^2$/s),
\item QSY: solid discharge along y (m$^2$/s),
\item US: friction velocity (m/s),
\item MAXZ: maximum value of the free surface
elevation during the computation (m),
\item TMXZ: time corresponding to this maximum elevation (s),
\item TAIR: air temperature ($^{\circ}$C),
\item USURF: velocity along x axis at the surface (m/s),
\item VSURF: velocity along y axis at the surface (m/s),
\item WSURF: velocity along z axis at the surface (m/s),
\item MSURF: magnitude of velocity at the surface (m/s),
\item TASURFi: TAi conc for tracers at the surface, i is the tracer
number,
\item TASURF*: TA conc for tracers at the surface from 1 to 9,
\item TASURF**: TA conc for tracers at the surface from 10 to 99.
\end{itemize}'
/
NOM = 'PERIODE POUR LES SORTIES GRAPHIQUES'
NOM1 = 'GRAPHIC PRINTOUT PERIOD'
TYPE = INTEGER
INDEX = 7
TAILLE = 1
DEFAUT = 1
DEFAUT1 = 1
MNEMO = 'GRAPRD'
RUBRIQUE =
'ENVIRONNEMENT DE CALCUL';'SORTIE';'RESULTATS'
RUBRIQUE1 =
'COMPUTATION ENVIRONMENT';'OUTPUT';'RESULTS'
COMPORT =
'Foreground ("ENTREES-SORTIES, GRAPHIQUES ET LISTING")
IS BRUT (red)'
NIVEAU = 0
AIDE =
'Determine la periode en nombre de pas de temps d''impression des
\telkey{VARIABLES POUR LES SORTIES GRAPHIQUES 2D ou 3D}
(voir ces mot-cles) dans le \telkey{FICHIER DES RESULTATS 2D ou 3D}.'
AIDE1 =
'Determines, in number of time steps, the printout period for the
\telkey{VARIABLES FOR 2D (or 3D) GRAPHIC PRINTOUTS}
in the \telkey{2D or 3D RESULT FILE}.'
/
NOM = 'NUMERO DU PREMIER PAS DE TEMPS POUR LES SORTIES GRAPHIQUES'
NOM1 = 'NUMBER OF FIRST TIME STEP FOR GRAPHIC PRINTOUTS'
TYPE = INTEGER
INDEX = 9
TAILLE = 1
DEFAUT = 0
DEFAUT1 = 0
MNEMO = 'GRADEB'
RUBRIQUE =
'ENVIRONNEMENT DE CALCUL';'SORTIE';'RESULTATS'
RUBRIQUE1 =
'COMPUTATION ENVIRONMENT';'OUTPUT';'RESULTS'
NIVEAU = 0
AIDE =
'Determine le numero de pas de temps a partir duquel debute
l''ecriture des resultats dans le \telkey{FICHIER DES RESULTATS 2D}
ou \telkey{3D}''.'
AIDE1 =
'Determines the number of time steps after which the results
are first written into the \telkey{2D} or \telkey{3D RESULT FILE}.'
/
NOM = 'NOMBRE DE TABLEAUX PRIVES'
NOM1 = 'NUMBER OF PRIVATE ARRAYS'
TYPE = INTEGER
INDEX = 62
TAILLE = 1
DEFAUT = 0
DEFAUT1 = 0
MNEMO = 'NPRIV'
RUBRIQUE =
'ENVIRONNEMENT DE CALCUL';'SORTIE';'RESULTATS'
RUBRIQUE1 =
'COMPUTATION ENVIRONMENT';'OUTPUT';'RESULTS'
NIVEAU = 0
AIDE =
'Nombre de tableaux mis a disposition de l utilisateur.'
AIDE1 =
'Number of arrays for own user programming.'
/
NOM = 'NOMBRE DE TABLEAUX PRIVES 2D'
NOM1 = 'NUMBER OF 2D PRIVATE ARRAYS'
TYPE = INTEGER
INDEX = 118
TAILLE = 1
DEFAUT = 0
DEFAUT1 = 0
MNEMO = 'NPRIV2D'
RUBRIQUE =
'ENVIRONNEMENT DE CALCUL';'SORTIE';'RESULTATS'
RUBRIQUE1 =
'COMPUTATION ENVIRONMENT';'OUTPUT';'RESULTS'
NIVEAU = 1
AIDE =
'Nombre de tableaux 2D mis a disposition de l utilisateur
dans le bloc \telfile{PRIVE2D}. Il doit etre inferieur ou egal a 4.'
AIDE1 =
'Number of 2D arrays for own user programming
in block \telfile{PRIVE2D}. It has to be lower or equal to 4.'
/
NOM = 'NOMS DES VARIABLES PRIVEES 2D'
NOM1 = 'NAMES OF 2D PRIVATE VARIABLES'
TYPE = STRING
INDEX = 94
TAILLE = 4
MNEMO = 'NAMES\_PRIVE2D'
RUBRIQUE =
'ENVIRONNEMENT DE CALCUL';'SORTIE';'RESULTATS'
RUBRIQUE1 =
'COMPUTATION ENVIRONMENT';'OUTPUT';'RESULTS'
COMPORT =
'Foreground ("ENTREES-SORTIES, FICHIERS*NOMS")
IS BRUT (red)'
NIVEAU = 1
AIDE =
'Noms des variables dans les tableaux prives 2D en 32
caracteres, 16 pour le nom 16 pour l''unite. Elles seront lues dans le
\telkey{FICHIER DE GEOMETRIE} si elles y sont.
Nombre maximum de 4 noms.'
AIDE1 =
'Name of variables in 2D private arrays in 32 characters,
16 for the name, 16 for the unit. If present, will be read
in the \telkey{GEOMETRY FILE}. Maximum number of 4 names.'
/
NOM = 'FICHIER DE RESULTATS FORMATE'
NOM1 = 'FORMATTED RESULTS FILE'
TYPE = STRING
INDEX = 75
TAILLE = 1
SUBMIT = 'T3DRFO-WRITE;T3DRFO;FACUL;ASC;ECR;PARAL'
DEFAUT = ''
DEFAUT1 = ''
MNEMO = 'T3D\_FILES(T3DRFO)\%NAME'
APPARENCE =
'LISTE IS FICHIER'
RUBRIQUE =
'ENVIRONNEMENT DE CALCUL';'SORTIE';'RESULTATS'
RUBRIQUE1 =
'COMPUTATION ENVIRONMENT';'OUTPUT';'RESULTS'
NIVEAU = 1
AIDE =
'Fichier de resultats formate mis a la disposition de
l''utilisateur.'
AIDE1 =
'Formatted file of results available to the user.'
/
NOM = 'FICHIER DE RESULTATS BINAIRE'
NOM1 = 'BINARY RESULTS FILE'
TYPE = STRING
INDEX = 74
TAILLE = 1
SUBMIT = 'T3DRBI-WRITE;T3DRBI;FACUL;BIN;ECR;PARAL'
DEFAUT = ''
DEFAUT1 = ''
MNEMO = 'T3D\_FILES(T3DRBI)\%NAME'
APPARENCE =
'LISTE IS FICHIER'
RUBRIQUE =
'ENVIRONNEMENT DE CALCUL';'SORTIE';'RESULTATS'
RUBRIQUE1 =
'COMPUTATION ENVIRONMENT';'OUTPUT';'RESULTS'
NIVEAU = 1
AIDE =
'Fichier de resultats code en binaire mis a la disposition
de l''utilisateur.'
AIDE1 =
'Additional binary-coded result file available to the user.'
/
NOM = 'FICHIER DE RESULTATS FORMATE 1'
NOM1 = 'FORMATTED RESULTS FILE 1'
TYPE = STRING
INDEX = 42
TAILLE = 1
SUBMIT = 'T3DRF1-WRITE;T3DRF1;FACUL;ASC;ECR;SCAL'
DEFAUT = ''
DEFAUT1 = ''
MNEMO = 'T3D\_FILES(T3DRF1)\%NAME'
RUBRIQUE =
'ENVIRONNEMENT DE CALCUL';'SORTIE';'RESULTATS'
RUBRIQUE1 =
'COMPUTATION ENVIRONMENT';'OUTPUT';'RESULTS'
NIVEAU = 1
AIDE =
'Fichier de resultats formate 1 mis a la disposition de
l''utilisateur.'
AIDE1 =
'Formatted file of results 1 available to the user.'
/
NOM = 'FICHIER DE RESULTATS FORMATE 2'
NOM1 = 'FORMATTED RESULTS FILE 2'
TYPE = STRING
INDEX = 43
TAILLE = 1
SUBMIT = 'T3DRF2-WRITE;T3DRF2;FACUL;ASC;ECR;SCAL'
DEFAUT = ''
DEFAUT1 = ''
MNEMO = 'T3D\_FILES(T3DRF2)\%NAME'
RUBRIQUE =
'ENVIRONNEMENT DE CALCUL';'SORTIE';'RESULTATS'
RUBRIQUE1 =
'COMPUTATION ENVIRONMENT';'OUTPUT';'RESULTS'
NIVEAU = 1
AIDE =
'Fichier de resultats formate 2 mis a la disposition de
l''utilisateur.'
AIDE1 =
'Formatted file of results 2 available to the user.'
/
NOM = 'FICHIER DE RESULTATS FORMATE 3'
NOM1 = 'FORMATTED RESULTS FILE 3'
TYPE = STRING
INDEX = 44
TAILLE = 1
SUBMIT = 'T3DRF3-WRITE;T3DRF3;FACUL;ASC;ECR;SCAL'
DEFAUT = ''
DEFAUT1 = ''
MNEMO = 'T3D\_FILES(T3DRF3)\%NAME'
RUBRIQUE =
'ENVIRONNEMENT DE CALCUL';'SORTIE';'RESULTATS'
RUBRIQUE1 =
'COMPUTATION ENVIRONMENT';'OUTPUT';'RESULTS'
NIVEAU = 1
AIDE =
'Fichier de resultats formate 3 mis a la disposition de
l''utilisateur.'
AIDE1 =
'Formatted file of results 3 available to the user.'
/
NOM = 'FICHIER DE RESULTATS FORMATE 4'
NOM1 = 'FORMATTED RESULTS FILE 4'
TYPE = STRING
INDEX = 45
TAILLE = 1
SUBMIT = 'T3DRF4-WRITE;T3DRF4;FACUL;ASC;ECR;SCAL'
DEFAUT = ''
DEFAUT1 = ''
MNEMO = 'T3D\_FILES(T3DRF4)\%NAME'
RUBRIQUE =
'ENVIRONNEMENT DE CALCUL';'SORTIE';'RESULTATS'
RUBRIQUE1 =
'COMPUTATION ENVIRONMENT';'OUTPUT';'RESULTS'
NIVEAU = 1
AIDE =
'Fichier de resultats formate 4 mis a la disposition de
l''utilisateur.'
AIDE1 =
'Formatted file of results 4 available to the user.'
/
NOM = 'FICHIER DE RESULTATS FORMATE 5'
NOM1 = 'FORMATTED RESULTS FILE 5'
TYPE = STRING
INDEX = 46
TAILLE = 1
SUBMIT = 'T3DRF5-WRITE;T3DRF5;FACUL;ASC;ECR;SCAL'
DEFAUT = ''
DEFAUT1 = ''
MNEMO = 'T3D\_FILES(T3DRF5)\%NAME'
RUBRIQUE =
'ENVIRONNEMENT DE CALCUL';'SORTIE';'RESULTATS'
RUBRIQUE1 =
'COMPUTATION ENVIRONMENT';'OUTPUT';'RESULTS'
NIVEAU = 1
AIDE =
'Fichier de resultats formate 5 mis a la disposition de
l''utilisateur.'
AIDE1 =
'Formatted file of results 5 available to the user.'
/
NOM = 'FICHIER DE RESULTATS FORMATE 6'
NOM1 = 'FORMATTED RESULTS FILE 6'
TYPE = STRING
INDEX = 47
TAILLE = 1
SUBMIT = 'T3DRF6-WRITE;T3DRF6;FACUL;ASC;ECR;SCAL'
DEFAUT = ''
DEFAUT1 = ''
MNEMO = 'T3D\_FILES(T3DRF6)\%NAME'
RUBRIQUE =
'ENVIRONNEMENT DE CALCUL';'SORTIE';'RESULTATS'
RUBRIQUE1 =
'COMPUTATION ENVIRONMENT';'OUTPUT';'RESULTS'
NIVEAU = 1
AIDE =
'Fichier de resultats formate 6 mis a la disposition de
l''utilisateur.'
AIDE1 =
'Formatted file of results 6 available to the user.'
/
////////////////////////////////////////////////////////////////////////
/////// 1.3.2-LISTING
////////////////////////////////////////////////////////////////////////
NOM = 'SORTIE LISTING'
NOM1 = 'LISTING PRINTOUT'
TYPE = LOGICAL
INDEX = 61
TAILLE = 1
DEFAUT = OUI
DEFAUT1 = YES
MNEMO = 'LISTIN'
RUBRIQUE =
'ENVIRONNEMENT DE CALCUL';'SORTIE';'LISTING'
RUBRIQUE1 =
'COMPUTATION ENVIRONMENT';'OUTPUT';'LISTING'
NIVEAU = 0
AIDE =
'Sortie des resultats sur support papier ou a l ecran.
Si l''on met NON le listing ne contient que l''entete et la mention
FIN NORMALE DU PROGRAMME. Commande a eviter.'
AIDE1 =
'Result printout on hard copy.
When NO is selected, the listing only includes the heading and the
phrase "NORMAL END OF PROGRAM".
In addition, the options \telkey{MASS-BALANCE} and
\telkey{VALIDATION} are inhibited. Not recommended for use.'
/
NOM = 'BILAN DE MASSE'
NOM1 = 'MASS-BALANCE'
TYPE = LOGICAL
INDEX = 13
TAILLE = 1
DEFAUT = NON
DEFAUT1 = NO
MNEMO = 'BILMAS'
RUBRIQUE =
'ENVIRONNEMENT DE CALCUL';'SORTIE';'LISTING'
RUBRIQUE1 =
'COMPUTATION ENVIRONMENT';'OUTPUT';'LISTING'
NIVEAU = 0
AIDE =
'Determine si l''on effectue ou non le bilan de masse
sur le domaine.
Cette procedure calcule a chaque pas de temps :
\begin{itemize}
\item les flux aux entrees et sorties du domaine ;
\item le flux global a travers l''ensemble des parois du domaine
(liquides ou solides) ;
\item l''erreur relative sur la masse pour ce pas de temps.
\end{itemize}
En fin de listing, on trouve l''erreur relative sur la masse pour
l''ensemble du calcul.
Il ne s''agit que d''un calcul indicatif car il n''existe pas
d''expression compatible du debit en formulation c,u,v.'
AIDE1 =
'Determines whether a check of the mass-balance over
the domain is done or not.
This procedures computes the following at each time step:
\begin{itemize}
\item the domain inflows and outflows,
\item the overall flow across all the boundaries,
\item the relative error in the mass for that time step.
\end{itemize}
The relative error in the mass over the whole computation can be found
at the end of the listing.'
/
NOM = 'INFORMATION SUR LE BILAN DE MASSE A CHAQUE SORTIE LISTING'
NOM1 = 'INFORMATION ABOUT MASS-BALANCE FOR EACH LISTING PRINTOUT'
TYPE = LOGICAL
INDEX = 14
TAILLE = 1
DEFAUT = OUI
DEFAUT1 = YES
MNEMO = 'INFMAS'
RUBRIQUE =
'ENVIRONNEMENT DE CALCUL';'SORTIE';'LISTING'
RUBRIQUE1 =
'COMPUTATION ENVIRONMENT';'OUTPUT';'LISTING'
NIVEAU = 0
AIDE =
'Donne a \telkey{PERIODE POUR LES SORTIES LISTING}
une information sur le bilan de masse.'
AIDE1 =
'Gives the information about mass-balance
at every \telkey{LISTING PRINTOUT PERIOD}.'
/
NOM = 'PERIODE POUR LES SORTIES LISTING'
NOM1 = 'LISTING PRINTOUT PERIOD'
TYPE = INTEGER
INDEX = 8
TAILLE = 1
DEFAUT = 1
DEFAUT1 = 1
MNEMO = 'LISPRD'
RUBRIQUE =
'ENVIRONNEMENT DE CALCUL';'SORTIE';'LISTING'
RUBRIQUE1 =
'COMPUTATION ENVIRONMENT';'OUTPUT';'LISTING'
NIVEAU = 0
AIDE =
'Determine la periode en nombre de pas de temps d''impression des
VARIABLES A IMPRIMER. Pour la mise au point,
il faut savoir que la sortie des resultats est effectuee
systematiquement sur le listing.'
AIDE1 =
'Determines, in number of time steps, the printout period of the
VARIABLES TO BE PRINTED.
The results are systematically printed out on the listing file.'
/
NOM = 'NUMERO DU PREMIER PAS DE TEMPS POUR LES SORTIES LISTING'
NOM1 = 'NUMBER OF FIRST TIME STEP FOR LISTING PRINTOUTS'
TYPE = INTEGER
INDEX = 10
TAILLE = 1
DEFAUT = 0
DEFAUT1 = 0
MNEMO = 'LISDEB'
RUBRIQUE =
'ENVIRONNEMENT DE CALCUL';'SORTIE';'LISTING'
RUBRIQUE1 =
'COMPUTATION ENVIRONMENT';'OUTPUT';'LISTING'
NIVEAU = 1
AIDE =
'Determine le numero de pas de temps a partir duquel debute
l''ecriture des resultats dans le listing.'
AIDE1 =
'Determines the number of time steps after which the results
are first written into the listing.'
/
////////////////////////////////////////////////////////////////////////
///// 1.4-RESTART
////////////////////////////////////////////////////////////////////////
NOM = 'SUITE DE CALCUL'
NOM1 = 'COMPUTATION CONTINUED'
TYPE = LOGICAL
INDEX = 1
TAILLE = 1
DEFAUT = NON
DEFAUT1 = NO
MNEMO = 'DEBU'
RUBRIQUE =
'ENVIRONNEMENT DE CALCUL';'REPRISE DE CALCUL';''
RUBRIQUE1 =
'COMPUTATION ENVIRONMENT';'RESTART';''
NIVEAU = 0
AIDE =
'Determine si le calcul en cours est independant de tout autre
resultat ou est une reprise effectuee a partir du resultat d''un calcul
precedent.
\begin{itemize}
\item NON : Il s''agit du premier passage pour ce calcul et il est
necessaire de definir un jeu complet de conditions initiales
\item OUI : Il s''agit d''une reprise de calcul :
les conditions initiales sont constituees par le dernier pas de
temps du \telkey{FICHIER DU CALCUL PRECEDENT} du fichier des parametres
utilise pour soumettre le calcul.
\end{itemize}
Par contre, l''ensemble des donnees du fichier des parametres
peuvent etre redefinies, ce qui offre la possibilite de changer
par exemple, le pas de temps, le modele de turbulence, le
frottement, d''ajouter ou retirer un traceur\ldots\\
De meme, il est necessaire de definir des conditions aux limites
(sous-programme \telfile{BORD3D} ou valeurs placees dans le fichier des
parametres), qui peuvent egalement etre modifiees.\\
Afin d''obtenir une suite de calcul parfaite, l''utilisateur doit
activer le \telkey{MODE SUITE} dans un calcul precedent afin de generer
le fichier a partir duquel le calcul suivant commence
(\telkey{FICHIER POUR SUITE}).'
AIDE1 =
'Determines whether the computation under way is independent
or is following an earlier result.
\begin{itemize}
\item NO: It is the first run for this computation and a whole set of
initial conditions should be defined,
\item YES: It follows a former computation:
the initial conditions consist in the last time step of the
\telkey{PREVIOUS COMPUTATION FILE} defined in the steering file
used for submitting the computation.
\end{itemize}
All the data from the steering file may be defined once again, which
provides an opportunity to change, for example, the time step,
the turbulence model, the friction, to add or remove a tracer\ldots\\
It is also possible to define new boundary conditions
(in the subroutine \telfile{BORD3D} or values defined
in the steering file).\\
In order to get a perfect continued computation, the user has to
activate the \telkey{RESTART MODE} in a previous computation to generate
the file from which the following computation starts
(\telkey{RESTART FILE}).'
/
NOM = 'FICHIER DU CALCUL PRECEDENT'
NOM1 = 'PREVIOUS COMPUTATION FILE'
TYPE = STRING
INDEX = 10
TAILLE = 1
SUBMIT = 'T3DPRE-READ;T3DPRE;FACUL;BIN;LIT;SELAFIN'
DEFAUT = ''
DEFAUT1 = ''
MNEMO = 'T3D\_FILES(T3DPRE)\%NAME'
RUBRIQUE =
'ENVIRONNEMENT DE CALCUL';'REPRISE DE CALCUL';''
RUBRIQUE1 =
'COMPUTATION ENVIRONMENT';'RESTART';''
NIVEAU = 0
AIDE =
'Nom d''un fichier contenant les resultats d''un calcul precedent
realise sur le meme maillage et dont le dernier pas de temps enregistre
va fournir les conditions initiales pour une suite de calcul.
Dans le cas d''une suite de calcul que l''on souhaite parfaite,
le \telkey{FICHIER DU CALCUL PRECEDENT} doit etre le
\telkey{FICHIER POUR SUITE} du dernier calcul, ce dernier fichier
etant alors un fichier de sortie du dernier calcul.
Le \telkey{FORMAT DU FICHIER DU CALCUL PRECEDENT} et le
\telkey{FORMAT DU FICHIER POUR SUITE} doivent alors etre mis a
 ''SERAFIND'' ou ''MED''.'
AIDE1 =
'Name of a file containing the results of an earlier computation
which was made on the same mesh. The last recorded time step will
provide the initial conditions for the new computation.
In case of a perfect continued computation, the
\telkey{PREVIOUS COMPUTATION FILE} has to be the \telkey{RESTART FILE}
of the last computation.
This last file is then an output file of the last computation.
The \telkey{PREVIOUS COMPUTATION FILE FORMAT} and the
\telkey{RESTART FILE FORMAT} have to be set with ''SERAFIND''
or ''MED''.'
/
NOM = 'FORMAT DU FICHIER DU CALCUL PRECEDENT'
NOM1 = 'PREVIOUS COMPUTATION FILE FORMAT'
TYPE = STRING
INDEX = 31
TAILLE = 1
DEFAUT = 'SERAFIN'
DEFAUT1 = 'SERAFIN'
MNEMO = 'T3D\_FILES(T3DPRE)\%FMT'
CHOIX =
'SERAFIN';
'SERAFIND';
'MED'
CHOIX1 =
'SERAFIN';
'SERAFIND';
'MED'
RUBRIQUE =
'ENVIRONNEMENT DE CALCUL';'REPRISE DE CALCUL';''
RUBRIQUE1 =
'COMPUTATION ENVIRONMENT';'RESTART';''
NIVEAU = 0
AIDE =
'Format du \telkey{FICHIER DU CALCUL PRECEDENT}.
Les valeurs possibles sont :
\begin{itemize}
\item SERAFIN : format standard simple precision pour \tel ;
\item SERAFIND: format standard double precision pour \tel ;
\item MED     : format MED double precision base sur HDF5.
\end{itemize}'
AIDE1 =
'Format of the \telkey{PREVIOUS COMPUTATION FILE}.
Possible choices are:
\begin{itemize}
\item SERAFIN : classical single precision format in \tel,
\item SERAFIND: classical double precision format in \tel,
\item MED     : MED double precision format based on HDF5.
\end{itemize}'
/
NOM = 'ENREGISTREMENT POUR SUITE DE CALCUL'
NOM1 = 'RECORD NUMBER FOR RESTART'
TYPE = INTEGER
INDEX = 82
TAILLE = 1
DEFAUT = -1
DEFAUT1 = -1
MNEMO = 'START\_RECORD'
RUBRIQUE =
'ENVIRONNEMENT DE CALCUL';'REPRISE DE CALCUL';''
RUBRIQUE1 =
'COMPUTATION ENVIRONMENT';'RESTART';''
NIVEAU = 1
AIDE =
'En cas de suite de calcul, numero de l enregistrement
de depart dans le fichier du calcul precedent. -1 signifie
que l on prend le dernier enregistrement.'
AIDE1 =
'In case of \telkey{COMPUTATION CONTINUED} = YES, record number
to start from in the \telkey{PREVIOUS COMPUTATION FILE}.
-1 means that the last record is taken.'
/
NOM = 'REMISE A ZERO DU TEMPS'
NOM1 = 'INITIAL TIME SET TO ZERO'
TYPE = LOGICAL
INDEX = 8
TAILLE = 1
DEFAUT = NON
DEFAUT1 = NO
MNEMO = 'RAZTIM'
RUBRIQUE =
'ENVIRONNEMENT DE CALCUL';'REPRISE DE CALCUL';''
RUBRIQUE1 =
'COMPUTATION ENVIRONMENT';'RESTART';''
NIVEAU = 1
AIDE =
'Remet le temps a zero en cas de suite de calcul.'
AIDE1 =
'Initial time set to zero in case of restart.'
/
NOM = 'MODE SUITE'
NOM1 = 'RESTART MODE'
TYPE = LOGICAL
INDEX = 20
TAILLE = 1
DEFAUT = NON
DEFAUT1 = NO
MNEMO = 'RESTART\_MODE'
RUBRIQUE =
'ENVIRONNEMENT DE CALCUL';'REPRISE DE CALCUL';''
RUBRIQUE1 =
'COMPUTATION ENVIRONMENT';'RESTART';''
NIVEAU = 1
AIDE =
'Declenche le remplissage du
\telkey{FICHIER POUR SUITE}, qui permet une suite de calcul
parfaite, contrairement au \telkey{FICHIER DES RESULTATS 3D}.'
AIDE1 =
'Triggers the filling of the \telkey{RESTART FILE},
which ensures a perfect restart of a computation,
unlike using the \telkey{3D RESULT FILE}.'
/
NOM = 'FICHIER POUR SUITE'
NOM1 = 'RESTART FILE'
TYPE = STRING
INDEX = 85
TAILLE = 1
SUBMIT = 'T3DRST-WRITE;T3DRST;FACUL;BIN;ECR;SELAFIN'
DEFAUT = ''
DEFAUT1 = ''
MNEMO = 'T3D\_FILES(T3DRST)\%NAME'
RUBRIQUE =
'ENVIRONNEMENT DE CALCUL';'REPRISE DE CALCUL';''
RUBRIQUE1 =
'COMPUTATION ENVIRONMENT';'RESTART';''
NIVEAU = 1
AIDE =
'Nom du fichier dans lequel seront ecrits les resultats du
dernier calcul pour obtenir une suite de calcul parfaite.
C''est donc un fichier de sortie pour le calcul en cours,
qui servira de fichier d''entree lors de la suite de calcul que l''on
souhaite parfaite (le mot-cle \telkey{FICHIER DU CALCUL PRECEDENT}
est alors utilise).
Le \telkey{FORMAT DU FICHIER POUR SUITE} et le
\telkey{FORMAT DU FICHIER DU CALCUL PRECEDENT} doivent alors etre mis a
 ''SERAFIND'' ou ''MED''.'
AIDE1 =
'Name of the file into which the last computation results shall
be written in order to get a perfect continued computation.
It is then an output file for the current computation,
which will be used as an input file when a continued computation
is expected to be perfect (the keyword
\telkey{PREVIOUS COMPUTATION FILE} is then used).
The \telkey{RESTART FILE FORMAT} and the
\telkey{PREVIOUS COMPUTATION FILE FORMAT} have to be set with
 ''SERAFIND'' or ''MED''.'
/
NOM = 'FORMAT DU FICHIER POUR SUITE'
NOM1 = 'RESTART FILE FORMAT'
TYPE = STRING
INDEX = 84
TAILLE = 1
DEFAUT = 'SERAFIND'
DEFAUT1 = 'SERAFIND'
MNEMO = 'T3D\_FILES(T3DRST)\%FMT'
CHOIX =
'SERAFIN';
'SERAFIND';
'MED'
CHOIX1 =
'SERAFIN';
'SERAFIND';
'MED'
RUBRIQUE =
'ENVIRONNEMENT DE CALCUL';'REPRISE DE CALCUL';''
RUBRIQUE1 =
'COMPUTATION ENVIRONMENT';'RESTART';''
NIVEAU = 2
AIDE =
'Format du \telkey{FICHIER POUR SUITE}.
Les valeurs possibles sont :
\begin{itemize}
\item SERAFIN : format standard simple precision pour \tel ;
\item SERAFIND: format standard double precision pour \tel ;
\item MED     : format MED double precision base sur HDF5.
\end{itemize}
Seul les formats double precision assurent une suite parfaite.'
AIDE1 =
'Format of the \telkey{RESTART FILE}.
Possible choices are:
\begin{itemize}
\item SERAFIN : classical single precision format in \tel,
\item SERAFIND: classical double precision format in \tel,
\item MED     : MED double precision format based on HDF5.
\end{itemize}
Only double precision formats ensure a perfect restart.'
/
NOM = 'PERIODE POUR LES SORTIES DU FICHIER POUR SUITE'
NOM1 = 'RESTART FILE PRINTOUT PERIOD'
TYPE = INTEGER
INDEX = 79
TAILLE = 1
DEFAUT = 0
DEFAUT1 = 0
MNEMO = 'RSTPRD'
RUBRIQUE =
'ENVIRONNEMENT DE CALCUL';'REPRISE DE CALCUL';''
RUBRIQUE1 =
'COMPUTATION ENVIRONMENT';'RESTART';''
NIVEAU = 2
AIDE =
'Determine la periode en nombre de pas de temps d impression des
variables a sauver pour une reprise parfaite
dans le \telkey{FICHIER POUR SUITE}.
La valeur par defaut 0 signifie que le \telkey{FICHIER POUR SUITE}
est seulement ecrit au dernier pas de temps ou au
\telkey{NUMERO DE L''ENREGISTREMENT DANS LE FICHIER POUR SUITE}.'
AIDE1 =
'Determines, in number of time steps, the printout period for the
variables to be saved for a perfect restart in the
\telkey{RESTART FILE}.
Default = 0 means the \telkey{RESTART FILE} is only written at the last
time step or at the \telkey{RECORD NUMBER IN RESTART FILE}.'
/
NOM = 'NUMERO DE L''ENREGISTREMENT DANS LE FICHIER POUR SUITE'
NOM1 = 'RECORD NUMBER IN RESTART FILE'
TYPE = INTEGER
INDEX = 80
TAILLE = 1
DEFAUT = -1
DEFAUT1 = -1
MNEMO = 'RESTART\_RECORD'
RUBRIQUE =
'ENVIRONNEMENT DE CALCUL';'REPRISE DE CALCUL';''
RUBRIQUE1 =
'COMPUTATION ENVIRONMENT';'RESTART';''
NIVEAU = 2
AIDE =
'Determine le numero de pas de temps d impression des
variables a sauver pour une reprise parfaite
dans le \telkey{FICHIER POUR SUITE}.
La valeur par defaut -1 signifie que le \telkey{FICHIER POUR SUITE}
est seulement ecrit au dernier pas de temps et/ou periodiquement a la
periode \telkey{PERIODE POUR LES SORTIES DU FICHIER POUR SUITE}.'
AIDE1 =
'Determines the number of time step when printing the variables to be
saved for a perfect restart in the \telkey{RESTART FILE}.
Default = -1 means the \telkey{RESTART FILE} is only written at the last
time step and/or periodically at the period
\telkey{RESTART FILE PRINTOUT PERIOD}.'
/
NOM = 'SUITE 2D'
NOM1 = '2D CONTINUATION'
TYPE = LOGICAL
INDEX = 75
TAILLE = 1
DEFAUT = NON
DEFAUT1 = NO
MNEMO = 'SUIT2'
RUBRIQUE =
'ENVIRONNEMENT DE CALCUL';'REPRISE DE CALCUL';''
RUBRIQUE1 =
'COMPUTATION ENVIRONMENT';'RESTART';''
COMPORT =
'Foreground ("EQUATIONS")
IS BRUT (brown)'
NIVEAU = 1
AIDE =
'Permet d''utiliser un \telkey{FICHIER DES RESULTATS 2D}
stocke dans le \telkey{FICHIER POUR SUITE 2D} comme fichier de
conditions initiales.'
AIDE1 =
'Enables to use a \telkey{2D RESULT FILE} in
\telkey{FILE FOR 2D CONTINUATION} as initial conditions file.'
/
NOM = 'FICHIER POUR SUITE 2D'
NOM1 = 'FILE FOR 2D CONTINUATION'
TYPE = STRING
INDEX = 92
TAILLE = 1
SUBMIT = 'T3DS2D-READ;T3DS2D;FACUL;BIN;LIT;SELAFIN'
DEFAUT = ''
DEFAUT1 = ''
MNEMO = 'T3D\_FILES(T3DS2D)\%NAME'
RUBRIQUE =
'ENVIRONNEMENT DE CALCUL';'REPRISE DE CALCUL';''
RUBRIQUE1 =
'COMPUTATION ENVIRONMENT';'RESTART';''
NIVEAU = 1
AIDE =
'Fichier utilise en cas de suite 2D.'
AIDE1 =
'File to be used in case of 2D continuation.'
/
NOM = 'FORMAT DU FICHIER POUR SUITE 2D'
NOM1 = 'FILE FOR 2D CONTINUATION FORMAT'
TYPE = STRING
INDEX = 93
TAILLE = 1
DEFAUT = 'SERAFIN'
DEFAUT1 = 'SERAFIN'
MNEMO = 'T3D\_FILES(T3DS2D)\%FMT'
CHOIX =
'SERAFIN';
'SERAFIND';
'MED'
CHOIX1 =
'SERAFIN';
'SERAFIND';
'MED'
RUBRIQUE =
'ENVIRONNEMENT DE CALCUL';'REPRISE DE CALCUL';''
RUBRIQUE1 =
'COMPUTATION ENVIRONMENT';'RESTART';''
NIVEAU = 2
AIDE =
'Format du \telkey{FICHIER POUR SUITE 2D}.
Les valeurs possibles sont :
\begin{itemize}
\item SERAFIN : format standard simple precision pour \tel ;
\item SERAFIND: format standard double precision pour \tel ;
\item MED     : format MED double precision base sur HDF5.
\end{itemize}'
AIDE1 =
'Format of the \telkey{FILE FOR 2D CONTINUATION}.
Possible choices are:
\begin{itemize}
\item SERAFIN : classical single precision format in \tel,
\item SERAFIND: classical double precision format in \tel,
\item MED     : MED double precision format based on HDF5.
\end{itemize}'
/
////////////////////////////////////////////////////////////////////////
/// 2-GENERAL PARAMETERS
////////////////////////////////////////////////////////////////////////
NOM = 'DEBUGGER'
NOM1 = 'DEBUGGER'
TYPE = INTEGER
INDEX = 104
TAILLE = 1
DEFAUT = 0
DEFAUT1 = 0
MNEMO = 'DEBUG'
RUBRIQUE =
'PARAMETRES GENERAUX';'';''
RUBRIQUE1 =
'GENERAL PARAMETERS';'';''
NIVEAU = 0
AIDE =
'Pour imprimer la sequence des appels, mettre 1.'
AIDE1 =
'If 1, additional writings will be printed in the listing,
in particular the calls of subroutines.'
/
////////////////////////////////////////////////////////////////////////
///// 2.1-TIME
////////////////////////////////////////////////////////////////////////
NOM = 'PAS DE TEMPS'
NOM1 = 'TIME STEP'
TYPE = REAL
INDEX = 1
TAILLE = 1
DEFAUT = 1.
DEFAUT1 = 1.
MNEMO = 'DT'
RUBRIQUE =
'PARAMETRES GENERAUX';'TEMPS';''
RUBRIQUE1 =
'GENERAL PARAMETERS';'TIME';''
NIVEAU = 0
AIDE =
'Definit le pas de temps en secondes.
Remarque : Pour une bonne precision, il est souhaitable de choisir
le pas de temps de telle sorte que le nombre de Courant de propagation
soit inferieur a 2, voire 3.
Ceci peut etre realisable en hydraulique fluviale, mais ne l''est
pratiquement jamais en hydraulique maritime ou l''on peut atteindre
des valeurs de 50.'
AIDE1 =
'Specifies the time step in seconds.'
/
NOM = 'NOMBRE DE PAS DE TEMPS'
NOM1 = 'NUMBER OF TIME STEPS'
TYPE = INTEGER
INDEX = 1
TAILLE = 1
DEFAUT = 1
DEFAUT1 = 1
MNEMO = 'NIT'
RUBRIQUE =
'PARAMETRES GENERAUX';'TEMPS';''
RUBRIQUE1 =
'GENERAL PARAMETERS';'TIME';''
COMPORT =
'Foreground ("PARAMETRES NUMERIQUES*DUREE DU CALCUL")
IS BRUT (blue)'
NIVEAU = 0
AIDE =
'Definit le nombre de pas de temps effectues lors de
l''execution du code.'
AIDE1 =
'Specifies the number of time steps performed when running
the code.'
/
NOM = 'DUREE DU CALCUL'
NOM1 = 'DURATION'
TYPE = REAL
INDEX = 93
TAILLE = 1
DEFAUT = 0.
DEFAUT1 = 0.
MNEMO = 'DUREE'
RUBRIQUE =
'PARAMETRES GENERAUX';'TEMPS';''
RUBRIQUE1 =
'GENERAL PARAMETERS';'TIME';''
NIVEAU = 0
AIDE =
'Duree de la simulation en secondes. Alternative au parametre
\telkey{NOMBRE DE PAS DE TEMPS}.
On en deduit le nombre de pas de temps en prenant l''entier le
plus proche de (duree du calcul/pas de temps).
Si le \telkey{NOMBRE DE PAS DE TEMPS} est aussi donne,
on prend la plus grande valeur.'
AIDE1 =
'Sets the duration of the simulation in seconds.
May be used instead of the parameter \telkey{NUMBER OF TIME STEPS}.
The nearest integer to (duration/time step) is taken.
If \telkey{NUMBER OF TIME STEPS} is also given,
the greater value is taken.'
/
NOM = 'DATE DE L''ORIGINE DES TEMPS'
NOM1 = 'ORIGINAL DATE OF TIME'
TYPE = INTEGER
INDEX = 91
TAILLE = 3
DEFAUT = 1900;1;1
DEFAUT1 = 1900;1;1
MNEMO = 'MARDAT'
RUBRIQUE =
'PARAMETRES GENERAUX';'TEMPS';''
RUBRIQUE1 =
'GENERAL PARAMETERS';'TIME';''
NIVEAU = 0
AIDE =
'Permet de fixer la date d''origine des temps du modele lorsque
la maree est prise en compte (force generatrice de la maree et/ou les
conditions aux limites de maritimes.
Egalement utilise pour les flotteurs,
les echanges thermiques avec atmosphere, le chainage avec DELWAQ.'
AIDE1 =
'Enables to set the date of the time origin of the model when
taking into account of the tide (tide generator force and/or the tidal
boundary conditions).
Also used with drogues, heat exchange with atmosphere,
chaining with DELWAQ.'
/
NOM = 'HEURE DE L''ORIGINE DES TEMPS'
NOM1 = 'ORIGINAL HOUR OF TIME'
TYPE = INTEGER
INDEX = 92
TAILLE = 3
DEFAUT = 0;0;0
DEFAUT1 = 0;0;0
MNEMO = 'MARTIM'
RUBRIQUE =
'PARAMETRES GENERAUX';'TEMPS';''
RUBRIQUE1 =
'GENERAL PARAMETERS';'TIME';''
NIVEAU = 0
AIDE =
'Permet de fixer l''heure d''origine des temps du modele lorsque
la maree est prise en compte (force generatrice de la maree et/ou les
conditions aux limites de maritimes.
Egalement utilise pour les flotteurs,
les echanges thermiques avec atmosphere, en chainage avec DELWAQ.'
AIDE1 =
'Enables to set the time of the time origin of the model when
taking into account of the tide (tide generator force and/or the tidal
boundary conditions).
Also used with drogues, heat exchange with atmosphere,
chaining with DELWAQ.'
/
////////////////////////////////////////////////////////////////////////
///// 2.2-LOCATION
////////////////////////////////////////////////////////////////////////
NOM = 'COORDONNEES SPHERIQUES'
NOM1 = 'SPHERICAL COORDINATES'
TYPE = LOGICAL
INDEX = 17
TAILLE = 1
DEFAUT = NON
DEFAUT1 = NO
MNEMO = 'SPHERI'
RUBRIQUE =
'PARAMETRES GENERAUX';'LOCALISATION';''
RUBRIQUE1 =
'GENERAL PARAMETERS';'LOCATION';''
NIVEAU = 0
AIDE =
'Choix des coordonnees spheriques pour la realisation du calcul
(pour les grands domaines de calcul).
Attention : cette option est etroitement liee au maillage qui doit avoir
ete saisi sur une carte marine en projection de Mercator. Il faut de
plus relever sur la carte la \telkey{LATITUDE DU POINT ORIGINE}
qui correspond dans le maillage a l''ordonnee $y$ = 0.'
AIDE1 =
'Selection of spherical coordinates to perform the computation
(for large computation domains).
Warning: this option is closely related to the mesh that should have
been entered onto a nautical chart drawn as per Mercator projection
The \telkey{LATITUDE OF ORIGIN POINT}, which corresponds to
ordinate $y$ = 0 in the mesh, must moreover be given.'
/
NOM = 'TYPE DE PROJECTION SPATIALE'
NOM1 = 'SPATIAL PROJECTION TYPE'
TYPE = INTEGER
INDEX = 86
TAILLE = 1
DEFAUT = 2
DEFAUT1 = 2
MNEMO = 'PROTYP'
CHOIX =
'1="CARTESIEN, NON GEOREFERENCE"';
'2="MERCATOR"';
'3="LATITUDE LONGITUDE"'
CHOIX1 =
'1="CARTESIAN, NOT GEOREFERENCED"';
'2="MERCATOR"';
'3="LATITUDE LONGITUDE"'
RUBRIQUE =
'PARAMETRES GENERAUX';'LOCALISATION';''
RUBRIQUE1 =
'GENERAL PARAMETERS';'LOCATION';''
NIVEAU = 0
AIDE =
'Permet de specifier le type de projection spatiale utilisee dans
le cas de l''utilisation des coordonnees spheriques par exemple.
Les choix possibles sont :
\begin{itemize}
\item 1 : Lambert Cartesien non georeference ;
\item 2 : Mercator ;
\item 3 : Latitude/longitude (exprimees en degres).
\end{itemize}
Option 2 ou 3 obligatoire pour les coordonnees spheriques.
Option 3 : latitude et longitude en degres !
Dans le cas de l''option 3, \telemac{3d} convertit les informations
latitude/longitude a l''aide de la projection de Mercator.'
AIDE1 =
'Specifies the type of spatial projection used
(for example when using spherical coordinates).
Possible choices are:
\begin{itemize}
\item 1: Cartesian, not georeferenced,
\item 2: Mercator,
\item 3: latitude/longitude (in degrees).
\end{itemize}
Option 2 or 3 mandatory for spherical coordinates. Option 3: latitude
and longitude in degrees! When using option 3, the coordinates are
automatically
treated by \telemac{3d} using Mercator projection.'
/
NOM = 'LATITUDE DU POINT ORIGINE'
NOM1 = 'LATITUDE OF ORIGIN POINT'
TYPE = REAL
INDEX = 77
TAILLE = 1
DEFAUT = 0.
DEFAUT1 = 0.
MNEMO = 'LATIT'
RUBRIQUE =
'PARAMETRES GENERAUX';'LOCALISATION';''
RUBRIQUE1 =
'GENERAL PARAMETERS';'LOCATION';''
NIVEAU = 0
AIDE =
'Donne la valeur de la latitude du point origine du maillage
(pour la projection de Mercator, voir le mot cle
\telkey{SYSTEME GEOGRAPHIQUE}).
Egalement utilise pour les echanges thermiques avec l atmosphere.'
AIDE1 =
'Gives the value of the latitude of the origin point of the
mesh (for the Mercator projection, see the keyword
\telkey{GEOGRAPHIC SYSTEM}).
Also used for heat exchange with atmosphere.'
/
NOM = 'LONGITUDE DU POINT ORIGINE'
NOM1 = 'LONGITUDE OF ORIGIN POINT'
TYPE = REAL
INDEX = 78
TAILLE = 1
DEFAUT = 0.
DEFAUT1 = 0.
MNEMO = 'LONGIT'
RUBRIQUE =
'PARAMETRES GENERAUX';'LOCALISATION';''
RUBRIQUE1 =
'GENERAL PARAMETERS';'LOCATION';''
NIVEAU = 0
AIDE =
'Donne la valeur de la longitude du point origine du maillage
(pour la projection de Mercator, voir le mot cle
\telkey{SYSTEME GEOGRAPHIQUE}).
Egalement utilise pour la force generatrice de la maree,
echanges thermiques avec l atmosphere.'
AIDE1 =
'Gives the value of the longitude of the origin point of the
mesh (for the Mercator projection, see the keyword
\telkey{GEOGRAPHIC SYSTEM}).
Also used for tide generating force, heat exchange with atmosphere.'
/
NOM = 'NORD'
NOM1 = 'NORTH'
TYPE = REAL
INDEX = 79
TAILLE = 1
DEFAUT = 0.
DEFAUT1 = 0.
MNEMO = 'NORD'
RUBRIQUE =
'PARAMETRES GENERAUX';'LOCALISATION';''
RUBRIQUE1 =
'GENERAL PARAMETERS';'LOCATION';''
NIVEAU = 2
AIDE =
'Angle que fait le nord,
dans le sens trigonometrique, avec L, axe Oy. Lu mais non utilise.'
AIDE1 =
'Angle of North, counted counter-clockwise, with Oy. Read but not used.'
/
////////////////////////////////////////////////////////////////////////
/// 3-VERTICAL
////////////////////////////////////////////////////////////////////////
NOM = 'NOMBRE DE PLANS HORIZONTAUX'
NOM1 = 'NUMBER OF HORIZONTAL LEVELS'
TYPE = INTEGER
INDEX = 2
TAILLE = 1
DEFAUT = 2
DEFAUT1 = 2
MNEMO = 'NPLAN'
RUBRIQUE =
'VERTICALE';'';''
RUBRIQUE1 =
'VERTICAL';'';''
COMPORT =
'Foreground ("PARAMETRES NUMERIQUES*GENERAL")
IS BRUT (blue)'
NIVEAU = 0
AIDE =
'Definit le nombre de plans du maillage entre le fond et la
surface. Vaut au moins 2.'
AIDE1 =
'Gives the number of planes from bottom to free surface. Must
be at least 2.'
/
NOM = 'TRANSFORMATION DU MAILLAGE'
NOM1 = 'MESH TRANSFORMATION'
TYPE = INTEGER
INDEX = 96
TAILLE = 1
DEFAUT = 1
DEFAUT1 = 1
MNEMO = 'TRANSF'
RUBRIQUE =
'VERTICALE';'';''
RUBRIQUE1 =
'VERTICAL';'';''
NIVEAU = 0
AIDE =
'Permet que specifier la methode de repartition des plans
verticaux du maillage. Les choix possibles sont :
\begin{itemize}
\item 0 : utilisateur (sous-programme \telfile{CALCOT} a programmer) ;
\item 1 : sigma ;
\item 2 : zstar ;
\item 3 : plans fixes ;
\item 5 : adaptatif.
\end{itemize}
Ce mot-clef doit etre coherent avec le sous-programme
\telfile{CONDIM}.'
AIDE1 =
'Specifies the distribution of vertical planes of the mesh.
Possible choices are:
\begin{itemize}
\item 0: user defined (then subroutine \telfile{CALCOT} to be
implemented),
\item 1: sigma,
\item 2: zstar,
\item 3: horizontal fixed planes,
\item 5: adaptive mesh.
\end{itemize}
This keyword must comply with what is done in \telkey{CONDIM}
subroutine.'
/
NOM = 'VOLUME MINIMAL DES ELEMENTS 3D'
NOM1 = 'MINIMUM VOLUME OF 3D ELEMENTS'
TYPE = REAL
INDEX = 37
TAILLE = 1
DEFAUT = 1.E-6
DEFAUT1 = 1.E-6
MNEMO = 'MINIMUM\_VOLUME'
RUBRIQUE =
'VERTICALE';'';''
RUBRIQUE1 =
'VERTICAL';'';''
AIDE =
'Volume minimal des elements 3D exprime en m$^3$.'
AIDE1 =
'Minimum volume of 3D elements in m$^3$.'
/
NOM = 'DISTANCE MINIMALE ENTRE PLANS PRES DU FOND'
NOM1 = 'MINIMUM DISTANCE BETWEEN PLANES CLOSE TO THE BOTTOM'
TYPE = REAL
INDEX = 38
TAILLE = 1
DEFAUT = 0.2
DEFAUT1 = 0.2
MNEMO = 'DISMIN\_BOT'
RUBRIQUE =
'VERTICALE';'';''
RUBRIQUE1 =
'VERTICAL';'';''
AIDE =
'Distance minimale entre plans pres du fond.
Seulement pour les plans de type \telfile{TRANSF\_PLANE\%I(...)} = 3.'
AIDE1 =
'Minimum distance between planes close to the bottom.
Only for planes of type \telfile{TRANSF\_PLANE\%I(...)} = 3.'
/
NOM = 'DISTANCE MINIMALE ENTRE PLANS PRES DE LA SURFACE LIBRE'
NOM1 = 'MINIMUM DISTANCE BETWEEN PLANES CLOSE TO THE FREE SURFACE'
TYPE = REAL
INDEX = 39
TAILLE = 1
DEFAUT = 0.2
DEFAUT1 = 0.2
MNEMO = 'DISMIN\_SUR'
RUBRIQUE =
'VERTICALE';'';''
RUBRIQUE1 =
'VERTICAL';'';''
AIDE =
'Distance minimale entre plans pres de la surface libre.
Seulement pour les plans de type \telfile{TRANSF\_PLANE\%I(...)} = 3.'
AIDE1 =
'Minimum distance between planes close to the free surface.
Only for planes of type \telfile{TRANSF\_PLANE\%I(...)} = 3.'
/
NOM = 'HAUTEUR SEUIL AVANT ELEMENTS ECRASES'
NOM1 = 'THRESHOLD HEIGHT BEFORE CRUSHED ELEMENTS'
TYPE = REAL
INDEX = 40
TAILLE = 1
DEFAUT = 0.
DEFAUT1 = 0.
MNEMO = 'MIN\_DZ'
RUBRIQUE =
'VERTICALE';'';''
RUBRIQUE1 =
'VERTICAL';'';''
AIDE =
'Hauteur minimale sous laquelle les elements 3D sont traites comme
ecrases.
Ce n est pas fait pour le plan de la surface libre.'
AIDE1 =
'Minimum height below which 3D elements are treated as crushed.
This is not done for the free surface plane.'
/
NOM = 'NUMERO DE TRACEUR POUR AMR'
NOM1 = 'NUMBER OF TRACER FOR AMR'
TYPE = INTEGER
INDEX = 32
TAILLE = 1
DEFAUT = 1
DEFAUT1 = 1
MNEMO = 'ITRAC\_AMR'
RUBRIQUE =
'VERTICALE';'';''
RUBRIQUE1 =
'VERTICAL';'';''
NIVEAU = 0
AIDE =
'Permet de donner le numero de traceur utilise par l algorithme de
maillage adaptatif (\telkey{TRANSFORMATION DU MAILLAGE} = 5).'
AIDE1 =
'Specifies the number of tracer used by the adaptive mesh algorithm
(\telkey{MESH TRANSFORMATION} = 5).'
/
////////////////////////////////////////////////////////////////////////
/// 4-NUMERICAL PARAMETERS
////////////////////////////////////////////////////////////////////////
NOM = 'NOMBRE DE SOUS ITERATIONS POUR LES NON LINEARITES'
NOM1 = 'NUMBER OF SUB ITERATIONS FOR NON LINEARITIES'
TYPE = INTEGER
INDEX = 12
TAILLE = 1
DEFAUT = 1
DEFAUT1 = 1
MNEMO = 'NSOUSI'
RUBRIQUE =
'PARAMETRES NUMERIQUES';'';''
RUBRIQUE1 =
'NUMERICAL PARAMETERS';'';''
NIVEAU = 0
AIDE =
'Permet de reactualiser, pour un meme pas de temps, les champs
convecteur et propagateur au cours de plusieurs sous-iterations. A la
premiere sous-iteration, ces champs sont donnes par $C$ et le champ de
vitesses au pas de temps precedent. Aux iterations suivantes, ils sont
pris egaux au champ de vitesse obtenu a la fin de la sous-iteration
precedente. Cette technique permet d''ameliorer la prise en compte des
non linearites.'
AIDE1 =
'Used for updating, within one time step, the advection and
propagation fields.
Upon the first sub-iteration, these fields are given by
$C$ and the velocity field in the previous time step. At subsequent
iterations, the results of the previous sub-iteration is used to
update the advection and propagation field.
The non-linearities can be taken into account through this technique.'
/
NOM = 'ZERO'
NOM1 = 'ZERO'
TYPE = REAL
INDEX = 13
TAILLE = 1
DEFAUT = 1.E-10
DEFAUT1 = 1.E-10
MNEMO = ''
RUBRIQUE =
'PARAMETRES NUMERIQUES';'';''
RUBRIQUE1 =
'NUMERICAL PARAMETERS';'';''
NIVEAU = 1
AIDE =
'Non active pour l''instant.'
AIDE1 =
'Not used so far.'
/
////////////////////////////////////////////////////////////////////////
///// 4.1-ADVECTION
////////////////////////////////////////////////////////////////////////
NOM = 'ETAPE DE CONVECTION'
NOM1 = 'ADVECTION STEP'
TYPE = LOGICAL
INDEX = 2
TAILLE = 1
DEFAUT = OUI
DEFAUT1 = YES
MNEMO = 'CONVEC'
RUBRIQUE =
'PARAMETRES NUMERIQUES';'CONVECTION';''
RUBRIQUE1 =
'NUMERICAL PARAMETERS';'ADVECTION';''
COMPORT =
'Foreground ("EQUATIONS, CONVECTION")
IS BRUT (brown)'
NIVEAU = 0
AIDE =
'Prise en compte ou non des termes de convection.
En cas de reponse positive,
on peut encore supprimer certains termes de convection avec
les mots-cles \telkey{SCHEMA POUR LA CONVECTION...}'
AIDE1 =
'Takes into account the advection terms or not.
If YES, some advection terms can still be ignored with the keywords
\telkey{SCHEME FOR ADVECTION OF...}'
/
NOM = 'TRAITEMENT DES FLUX AUX FRONTIERES'
NOM1 = 'TREATMENT OF FLUXES AT THE BOUNDARIES'
TYPE = INTEGER
INDEX = 97
TAILLE = 2
MNEMO = 'DIRFLU'
CHOIX =
'1="Priorite aux valeurs imposees"';
'2="Priorite aux flux"'
CHOIX1 =
'1="Priority to prescribed values"';
'2="Priority to fluxes"'
APPARENCE =
'DYNLIST'
RUBRIQUE =
'PARAMETRES NUMERIQUES';'CONVECTION';''
RUBRIQUE1 =
'NUMERICAL PARAMETERS';'ADVECTION';''
NIVEAU = 1
AIDE =
'Option s''utilisant uniquement pour les schemas SUPG, PSI et N
(un entier par frontiere liquide).
Les choix possibles sont :
\begin{itemize}
\item 1 : priorite aux valeurs imposees ;
\item 2 : priorite aux flux.
\end{itemize}
Avec l''option 2, on ne retrouve pas exactement les valeurs imposees
des traceurs, mais le flux est correct.'
AIDE1 =
'Used so far only with the SUPG, PSI and N schemes
(one integer per open boundary).
Possible choices are:
\begin{itemize}
\item 1: priority to prescribed values,
\item 2: priority to fluxes.
\end{itemize}
With option 2, Dirichlet prescribed values are not obeyed,
but the fluxes are correct.'
/
NOM = 'OPTION DE SUPG'
NOM1 = 'SUPG OPTION'
TYPE = INTEGER
INDEX = 100
TAILLE = 4
DEFAUT = 1;0;1;1
DEFAUT1 = 1;0;1;1
MNEMO = 'OPTSUP'
APPARENCE =
'DYNLIST'
RUBRIQUE =
'PARAMETRES NUMERIQUES';'CONVECTION';''
RUBRIQUE1 =
'NUMERICAL PARAMETERS';'ADVECTION';''
NIVEAU = 0
AIDE =
'Permet de specifier le type de decentrement utilise.
Les choix possibles sont :
\begin{itemize}
\item 0 : pas de decentrement SUPG ;
\item 1 : SUPG classique ;
\item 2 : SUPG modifiee.
\end{itemize}
Seul le premier coefficient (applique a $U$, $V$ et $W$) est utilise.
C est aussi ce coefficient qui est applique aux traceurs, $k$
et $\epsilon$ eventuellement.'
AIDE1 =
'Specifies the type of upwinding used.
Possible choices are:
\begin{itemize}
\item 0: no upwinding,
\item 1: classical SUPG,
\item 2: modified SUPG.
\end{itemize}
Only the 1st coefficient is used (and applied to $U$, $V$ and $W$).
It is also this coefficient which is applied to tracer(s), $k$
and $\epsilon$ if needed.'
/
NOM = 'MAXIMUM D''ITERATIONS POUR LES SCHEMAS DE CONVECTION'
NOM1 = 'MAXIMUM NUMBER OF ITERATIONS FOR ADVECTION SCHEMES'
TYPE = INTEGER
INDEX = 115
TAILLE = 1
DEFAUT = 50
DEFAUT1 = 50
MNEMO = 'MAXADV'
RUBRIQUE =
'PARAMETRES NUMERIQUES';'CONVECTION';''
RUBRIQUE1 =
'NUMERICAL PARAMETERS';'ADVECTION';''
NIVEAU = 0
AIDE =
'Limite le nombre d''iterations pour les schemas de convection,
seulement pour schemes 13 et 14.
Ancienne valeur par defaut = 10 jusqu en version 8.1.'
AIDE1 =
'Limits the number of solver iterations for the advection
schemes, only for schemes 13 and 14.
Old default value = 10 until release 8.1.'
/
NOM = 'NOMBRE DE SOUS-PAS DES SCHEMAS DISTRIBUTIFS'
NOM1 = 'NUMBER OF SUB-STEPS OF DISTRIBUTIVE SCHEMES'
TYPE = INTEGER
INDEX = 68
TAILLE = 1
DEFAUT = 1
DEFAUT1 = 1
MNEMO = 'NSP\_DIST'
RUBRIQUE =
'PARAMETRES NUMERIQUES';'CONVECTION';''
RUBRIQUE1 =
'NUMERICAL PARAMETERS';'ADVECTION';''
NIVEAU = 2
AIDE =
'Pour les options predicteur-correcteur avec schema localement
implicite (4 ou 5).
Ce mot-cle permet de diviser le pas de temps donne par l utilisateur
dans le \telkey{FICHIER DES PARAMETRES} en plusieurs sous-pas.
A nouveau, il produit un effet sur la precision du schema et
il est pratique d ajuster ce mot-cle afin d avoir des nombres de
Courant pas trop grands (autour de 1).'
AIDE1 =
'Only for implicit scheme with predictor-corrector (4 or 5).
This keyword allows to subdivide the time step given by the user in the
\telkey{STEERING FILE}, into several sub-steps.
Again, it produces an effect on the precision of the scheme and
it is convenient to set this keyword in order to have Courant numbers
not too large (around 1).'
/
NOM = 'NOMBRE DE CORRECTIONS DES SCHEMAS DISTRIBUTIFS'
NOM1 = 'NUMBER OF CORRECTIONS OF DISTRIBUTIVE SCHEMES'
TYPE = INTEGER
INDEX = 67
TAILLE = 1
DEFAUT = 1
DEFAUT1 = 1
MNEMO = 'NCO\_DIST'
RUBRIQUE =
'PARAMETRES NUMERIQUES';'CONVECTION';''
RUBRIQUE1 =
'NUMERICAL PARAMETERS';'ADVECTION';''
NIVEAU = 2
AIDE =
'Pour les options avec predicteur-correcteur et schema de convection
de type (3, 4 et 5, LIPS ou pas).
Nombre d iterations pour tous les pas de temps (ou sous pas) pour
converger vers la solution.
Il est utile pour les cas non stationnaires.
Pour les ecoulements quasi-stationnaires, ce mot-cle n a pas d impact
sur la solution, il peut donc etre fixe a 0.
D un autre cote, pour les ecoulements instationnaires, il est suggere
de fixer ce mot-cle a 2 (au moins), ce qui est un bon compromis
entre precision et temps CPU.
En effet, en augmentant le nombre de corrections, le schema est plus
precis mais le temps CPU augmente rapidement.'
AIDE1 =
'For predictor-corrector options with advection scheme of type
3, 4, 5, LIPS or not).
Number of iterations for every time step (or sub-time step) to converge
to the solution.
It is useful for unsteady cases.
For quasi-steady flows, this keyword does not have a large impact
on the solution, so it can be set to 0.
On the other hand, for unsteady flows, it is suggested to set this
keyword to 2 (at least), which is a good compromise between accuracy
and computational time. Indeed, increasing the number of corrections
the scheme is more accurate but the CPU time rapidly increases.'
/
////////////////////////////////////////////////////////////////////////
///// 4.2-DIFFUSION
////////////////////////////////////////////////////////////////////////
NOM = 'MASS-LUMPING POUR LA DIFFUSION'
NOM1 = 'MASS-LUMPING FOR DIFFUSION'
TYPE = REAL
INDEX = 92
TAILLE = 1
DEFAUT = 0.
DEFAUT1 = 0.
MNEMO = 'AGGLOD'
RUBRIQUE =
'PARAMETRES NUMERIQUES';'DIFFUSION';''
RUBRIQUE1 =
'NUMERICAL PARAMETERS';'DIFFUSION';''
NIVEAU = 0
AIDE =
'Mass-lumping de la matrice de masse dans la diffusion.
Si la diffusion est explicite (\telkey{IMPLICITATION FOR DIFFUSION}
< 0.001) ou qu un schema de convection est de type 3, 4, 5, 13 ou 14,
il est automatiquement mis a 1. dans \telfile{DIFF3D}.'
AIDE1 =
'Mass-lumping of the mass-matrix in the diffusion step.
If diffusion is explicit (\telkey{IMPLICITATION FOR DIFFUSION} < 0.001)
or if the advection scheme is of type 3, 4, 5, 13 or 14,
it is automatically set to 1. in \telfile{DIFF3D}.'
/
////////////////////////////////////////////////////////////////////////
/// 5-HYDRODYNAMICS
////////////////////////////////////////////////////////////////////////
NOM = 'VERSION NON-HYDROSTATIQUE'
NOM1 = 'NON-HYDROSTATIC VERSION'
TYPE = LOGICAL
INDEX = 71
TAILLE = 1
DEFAUT = OUI
DEFAUT1 = YES
MNEMO = 'NONHYD'
RUBRIQUE =
'HYDRODYNAMIQUE';'';''
RUBRIQUE1 =
'HYDRODYNAMICS';'';''
COMPORT =
'Foreground ("EQUATIONS")
IS BRUT (brown)'
NIVEAU = 0
AIDE =
'Permet de specifier s''il y a utilisation ou non de la version
non-hydrostatique.'
[...]
RUBRIQUE1 =
'SEDIMENT INFO';'DEPRECATED';'TO BE CHECKED'
NIVEAU = 2
AIDE =
'Choix du modele de tassement :
\begin{itemize}
\item 1 : Modele multicouches empirique ;
\item 2 : Modele de Gibson (Lenormant).
\end{itemize}'
AIDE1 =
'Choice of the consolidation model:
\begin{itemize}
\item 1: Empirical multilayer model,
\item 2: Gibson model (Lenormant).
\end{itemize}'
/
////////////////////////////////////////////////////////////////////////
/// 9-COUPLING
////////////////////////////////////////////////////////////////////////
NOM = 'COUPLAGE AVEC'
NOM1 = 'COUPLING WITH'
TYPE = STRING
INDEX = 62
TAILLE = 1
DEFAUT = ''
DEFAUT1 = ''
MNEMO = 'COUPLING, IN BIEF'
CHOIX =
'';
'SISYPHE';
'TOMAWAC';
'TOMAWACT3D';
'TOMAWAC2';
'TOMAWACT3D2';
'WAQTEL';
'DELWAQ';
'GAIA';
'KHIONE'
CHOIX1 =
'';
'SISYPHE';
'TOMAWAC';
'TOMAWACT3D';
'TOMAWAC2';
'TOMAWACT3D2';
'WAQTEL';
'DELWAQ';
'GAIA';
'KHIONE'
RUBRIQUE =
'COUPLAGE';'';''
RUBRIQUE1 =
'COUPLING';'';''
NIVEAU = 0
AIDE =
'Liste des codes avec lesquels on couple \telemac{3d} :
\begin{itemize}
\item \sisyphe : couplage interne avec \sisyphe ;
\item \tomawac : couplage interne avec \tomawac les forces
induites par les vagues sont constantes sur la hauteur ;
\item TOMAWACT3D : couplage interne avec \tomawac les forces
induites par les vagues sont 3D ;
\item TOMAWAC2 : couplage interne avec \tomawac sur maillages et
domaines eventuellement differents ;
\item TOMAWACT3D2 : couplage interne avec \tomawac, les forces
induites par les vagues sont 3D, les maillages et domaines sont
eventuellement differents ;
\item \waqtel : couplage interne avec \waqtel ;
\item DELWAQ : sortie de fichiers de resultats pour Delwaq ;
\item \gaia : couplage interne avec \gaia ;
\item \khione : couplage interne avec \khione.
\end{itemize}'
AIDE1 =
'List of codes to be coupled with \telemac{3d}:
\begin{itemize}
\item \sisyphe: internal coupling with \sisyphe,
\item \tomawac: internal coupling with \tomawac, forces are constant
along the depth,
\item TOMAWACT3D: internal coupling with \tomawac, forces are 3D,
\item TOMAWAC2: internal coupling with \tomawac, forces are constant
along the depth, meshes and domains can be different,
\item TOMAWACT3D2: internal coupling with \tomawac, forces are 3D,
meshes and domains can be different,
\item \waqtel: internal coupling with \waqtel,
\item DELWAQ: will yield results file for DELWAQ,
\item \gaia: internal coupling with \gaia,
\item \khione: internal coupling with \khione.
\end{itemize}'
/
////////////////////////////////////////////////////////////////////////
///// 9.1-SISYPHE
////////////////////////////////////////////////////////////////////////
NOM = 'FICHIER DES PARAMETRES DE SISYPHE'
NOM1 = 'SISYPHE STEERING FILE'
TYPE = STRING
INDEX = 61
TAILLE = 1
DEFAUT = ''
DEFAUT1 = ''
MNEMO = 'PAS DE MNEMO'
RUBRIQUE =
'COUPLAGE';'SISYPHE';''
RUBRIQUE1 =
'COUPLING';'SISYPHE';''
NIVEAU = 0
AIDE =
'Fichier des parametres de \sisyphe en cas de couplage
interne.'
AIDE1 =
'\sisyphe parameter file in case of internal coupling.'
/
NOM = 'PERIODE DE COUPLAGE POUR SISYPHE'
NOM1 = 'COUPLING PERIOD FOR SISYPHE'
TYPE = INTEGER
INDEX = 41
TAILLE = 1
DEFAUT = 1
DEFAUT1 = 1
MNEMO = 'PERCOU\_SIS'
RUBRIQUE =
'COUPLAGE';'SISYPHE';''
RUBRIQUE1 =
'COUPLING';'SISYPHE';''
NIVEAU = 0
AIDE =
'Fixe la periode de couplage avec le module \sisyphe,
en nombre de pas de temps.
Par defaut, il est couple a chaque pas de temps.'
AIDE1 =
'Sets the coupling period with the \sisyphe module, in number
of time steps. By default, it is coupled at every time step.'
/
////////////////////////////////////////////////////////////////////////
///// 9.2-TOMAWAC
////////////////////////////////////////////////////////////////////////
NOM = 'FICHIER DES PARAMETRES DE TOMAWAC'
NOM1 = 'TOMAWAC STEERING FILE'
TYPE = STRING
INDEX = 83
TAILLE = 1
DEFAUT = ''
DEFAUT1 = ''
MNEMO = 'PAS DE MNEMO'
RUBRIQUE =
'COUPLAGE';'TOMAWAC';''
RUBRIQUE1 =
'COUPLING';'TOMAWAC';''
NIVEAU = 0
AIDE =
'Fichier des parametres de \tomawac en cas de couplage
interne.'
AIDE1 =
'\tomawac parameter file in case of internal coupling.'
/
NOM = 'PERIODE DE COUPLAGE POUR TOMAWAC'
NOM1 = 'COUPLING PERIOD FOR TOMAWAC'
TYPE = INTEGER
INDEX = 35
TAILLE = 1
DEFAUT = 1
DEFAUT1 = 1
MNEMO = 'PERCOU\_WAC'
RUBRIQUE =
'COUPLAGE';'TOMAWAC';''
RUBRIQUE1 =
'COUPLING';'TOMAWAC';''
NIVEAU = 0
AIDE =
'Fixe la periode de couplage avec le module \tomawac,
en nombre de pas de temps.
Par defaut, il est couple a chaque pas de temps.'
AIDE1 =
'Sets the coupling period with the \tomawac module, in number
of time steps. By default, it is coupled at every time step.'
/
NOM = 'FROTTEMENT SUR LE FOND DU AUX VAGUES'
NOM1 = 'BOTTOM FRICTION DUE TO WAVES'
TYPE = LOGICAL
INDEX = 69
TAILLE = 1
DEFAUT = NON
DEFAUT1 = NO
MNEMO = 'BOT\_MOMENT'
RUBRIQUE =
'COUPLAGE';'TOMAWAC';''
RUBRIQUE1 =
'COUPLING';'TOMAWAC';''
NIVEAU = 0
AIDE =
'Permet de prendre en compte les efforts dus aux vagues sur
le fond dans le cas du couplage 3D. Ceci necessite d avoir
un maillage fin au voisinage du fond pour etre suffisamment precis.'
AIDE1 =
'Allows to take into account the momentum lost by waves due to
bottom friction. You need a fine mesh around the bottom to
be precise.'
/
////////////////////////////////////////////////////////////////////////
///// 9.3-WAQTEL
////////////////////////////////////////////////////////////////////////
NOM = 'PROCESSUS DE QUALITE D''EAU'
NOM1 = 'WATER QUALITY PROCESS'
TYPE = INTEGER
INDEX = 127
TAILLE = 1
DEFAUT = 1
DEFAUT1 = 1
MNEMO = 'WAQPROCESS'
RUBRIQUE =
'COUPLAGE';'WAQTEL';''
RUBRIQUE1 =
'COUPLING';'WAQTEL';''
NIVEAU = 0
AIDE =
'Donne le numero du processus de qualite d''eau, defini
comme une combinaison multiplicative de nombres premiers
(2, 3, 5, 7, 11, 13, 17 et 19) avec les cas particuliers 0 et 1 :
\begin{itemize}
\item 0 : tous ;
\item 1 : rien ;
\item 2 : O2 ;
\item 3 : BIOMASS ;
\item 5 : EUTRO ;
\item 7 : MICROPOL ;
\item 11 : THERMIC ;
\item 13 : AED2 ;
\item 17 : Loi de degradation ;
\item 19 : Court-circuit temporaire pour les glaces.
\end{itemize}
Exemple : 110 = 2x5x11 activera O2, EUTRO et THERMIC ensemble.
On notera qu''AED2, pour l''instant, doit etre utilise toute seule
sans combinaison possible avec d autre processus de qualite de l eau.'
AIDE1 =
'Gives the water quality process number, defined as
a multiplicative combination of prime numbers (2, 3, 5, 7, 11, 13, 17
and 19) with 0 and 1 having a special role:
\begin{itemize}
\item 0: all,
\item 1: none,
\item 2: O2,
\item 3: BIOMASS,
\item 5: EUTRO,
\item 7: MICROPOL,
\item 11: THERMIC,
\item 13: AED2,
\item 17: Degradation law,
\item 19: Ghost process for ice modelling.
\end{itemize}
Example: 110 = 2x5x11 activates O2, EUTRO and THERMIC together.
It is noted that AED2 should be used on its own, for the time being,
without possible combination with other processes.'
/
NOM = 'FICHIER DES PARAMETRES DE WAQTEL'
NOM1 = 'WAQTEL STEERING FILE'
TYPE = STRING
INDEX = 95
TAILLE = 1
DEFAUT = ''
DEFAUT1 = ''
MNEMO = ''
APPARENCE =
'LISTE IS FICHIER'
RUBRIQUE =
'COUPLAGE';'WAQTEL';''
RUBRIQUE1 =
'COUPLING';'WAQTEL';''
NIVEAU = 0
AIDE =
'Fichier des parametres physiques pour les processus de qualite d eau
(internes, pas ceux de DELWAQ).'
AIDE1 =
'File for physical parameters of water quality processes
(local ones of \telemac{3d}-\waqtel not those of DELWAQ).'
/
////////////////////////////////////////////////////////////////////////
///// 9.4-DELWAQ
////////////////////////////////////////////////////////////////////////
NOM = 'FICHIER DE COMMANDE DELWAQ'
NOM1 = 'DELWAQ STEERING FILE'
TYPE = STRING
INDEX = 69
TAILLE = 1
SUBMIT = 'T3DL11-WRITE;T3DL11;FACUL;ASC;ECR;DELWAQHYD'
DEFAUT = ''
DEFAUT1 = ''
MNEMO = 'T3D\_FILES(T3DL11)\%NAME'
APPARENCE =
'LISTE IS FICHIER'
RUBRIQUE =
'COUPLAGE';'DELWAQ';''
RUBRIQUE1 =
'COUPLING';'DELWAQ';''
NIVEAU = 0
AIDE =
'Fichier de commande pour le chainage avec DELWAQ.'
AIDE1 =
'Steering file for chaining with DELWAQ.'
/
NOM = 'PERIODE DE SORTIE POUR DELWAQ'
NOM1 = 'DELWAQ PRINTOUT PERIOD'
TYPE = INTEGER
INDEX = 101
TAILLE = 1
DEFAUT = 1
DEFAUT1 = 1
MNEMO = 'WAQPRD'
RUBRIQUE =
'COUPLAGE';'DELWAQ';''
RUBRIQUE1 =
'COUPLING';'DELWAQ';''
NIVEAU = 0
AIDE =
'Periode de sortie des resultats pour DELWAQ.'
AIDE1 =
'Printout period for DELWAQ files.'
/
NOM = 'FICHIER DELWAQ DES ECHANGES ENTRE NOEUDS'
NOM1 = 'EXCHANGES BETWEEN NODES DELWAQ FILE'
TYPE = STRING
INDEX = 67
TAILLE = 1
SUBMIT = 'T3DDL6-WRITE;T3DDL6;FACUL;BIN;ECR;DELWAQMET'
DEFAUT = ''
DEFAUT1 = ''
MNEMO = 'T3D\_FILES(T3DDL6)\%NAME'
APPARENCE =
'LISTE IS FICHIER'
RUBRIQUE =
'COUPLAGE';'DELWAQ';''
RUBRIQUE1 =
'COUPLING';'DELWAQ';''
NIVEAU = 0
AIDE =
'Fichier de resultats pour le chainage avec DELWAQ.'
AIDE1 =
'Results file for chaining with DELWAQ.'
/
NOM = 'FICHIER DELWAQ DES DISTANCES ENTRE NOEUDS'
NOM1 = 'NODES DISTANCES DELWAQ FILE'
TYPE = STRING
INDEX = 68
TAILLE = 1
SUBMIT = 'T3DDL7-WRITE;T3DDL7;FACUL;BIN;ECR;DELWAQMET'
DEFAUT = ''
DEFAUT1 = ''
MNEMO = 'T3D\_FILES(T3DDL7)\%NAME'
APPARENCE =
'LISTE IS FICHIER'
RUBRIQUE =
'COUPLAGE';'DELWAQ';''
RUBRIQUE1 =
'COUPLING';'DELWAQ';''
NIVEAU = 0
AIDE =
'Fichier de resultats pour le chainage avec DELWAQ.'
AIDE1 =
'Results file for chaining with DELWAQ.'
/
NOM = 'FICHIER DELWAQ DES SURFACES DU FOND'
NOM1 = 'BOTTOM SURFACES DELWAQ FILE'
TYPE = STRING
INDEX = 66
TAILLE = 1
SUBMIT = 'T3DDL5-WRITE;T3DDL5;FACUL;BIN;ECR;DELWAQMET'
DEFAUT = ''
DEFAUT1 = ''
MNEMO = 'T3D\_FILES(T3DDL5)\%NAME'
APPARENCE =
'LISTE IS FICHIER'
RUBRIQUE =
'COUPLAGE';'DELWAQ';''
RUBRIQUE1 =
'COUPLING';'DELWAQ';''
NIVEAU = 0
AIDE =
'Fichier de resultats pour le chainage avec DELWAQ.'
AIDE1 =
'Results file for chaining with DELWAQ.'
/
NOM = 'FICHIER DELWAQ DES VOLUMES'
NOM1 = 'VOLUMES DELWAQ FILE'
TYPE = STRING
INDEX = 63
TAILLE = 1
SUBMIT = 'T3DDL1-WRITE;T3DDL1;FACUL;BIN;ECR;DELWAQPTS'
DEFAUT = ''
DEFAUT1 = ''
MNEMO = 'T3D\_FILES(T3DDL1)\%NAME'
APPARENCE =
'LISTE IS FICHIER'
RUBRIQUE =
'COUPLAGE';'DELWAQ';''
RUBRIQUE1 =
'COUPLING';'DELWAQ';''
NIVEAU = 0
AIDE =
'Fichier de resultats pour le chainage avec DELWAQ.'
AIDE1 =
'Results file for chaining with DELWAQ.'
/
NOM = 'FICHIER DELWAQ DES SURFACES DE FLUX'
NOM1 = 'EXCHANGE AREAS DELWAQ FILE'
TYPE = STRING
INDEX = 64
TAILLE = 1
SUBMIT = 'T3DDL2-WRITE;T3DDL2;FACUL;BIN;ECR;DELWAQSEG'
DEFAUT = ''
DEFAUT1 = ''
MNEMO = 'T3D\_FILES(T3DDL2)\%NAME'
APPARENCE =
'LISTE IS FICHIER'
RUBRIQUE =
'COUPLAGE';'DELWAQ';''
RUBRIQUE1 =
'COUPLING';'DELWAQ';''
NIVEAU = 0
AIDE =
'Fichier de resultats pour le chainage avec DELWAQ.'
AIDE1 =
'Results file for chaining with DELWAQ.'
/
NOM = 'FICHIER DELWAQ DES FLUX VERTICAUX'
NOM1 = 'VERTICAL FLUXES DELWAQ FILE'
TYPE = STRING
INDEX = 65
TAILLE = 1
SUBMIT = 'T3DDL3-WRITE;T3DDL3;FACUL;BIN;ECR;DELWAQSEG'
DEFAUT = ''
DEFAUT1 = ''
MNEMO = 'T3D\_FILES(T3DDL3)\%NAME'
APPARENCE =
'LISTE IS FICHIER'
RUBRIQUE =
'COUPLAGE';'DELWAQ';''
RUBRIQUE1 =
'COUPLING';'DELWAQ';''
NIVEAU = 0
AIDE =
'Fichier de resultats pour le chainage avec DELWAQ.'
AIDE1 =
'Results file for chaining with DELWAQ.'
/
NOM = 'FICHIER DELWAQ DE LA VITESSE'
NOM1 = 'VELOCITY DELWAQ FILE'
TYPE = STRING
INDEX = 76
TAILLE = 1
SUBMIT = 'T3DDL9-WRITE;T3DDL9;FACUL;BIN;ECR;DELWAQPTS'
DEFAUT = ''
DEFAUT1 = ''
MNEMO = 'T3D\_FILES(T3DDL9)\%NAME'
APPARENCE =
'LISTE IS FICHIER'
RUBRIQUE =
'COUPLAGE';'DELWAQ';''
RUBRIQUE1 =
'COUPLING';'DELWAQ';''
NIVEAU = 0
AIDE =
'Fichier de resultats pour le chainage avec DELWAQ.'
AIDE1 =
'Results file for chaining with DELWAQ.'
/
NOM = 'FICHIER DELWAQ DE LA DIFFUSION'
NOM1 = 'DIFFUSIVITY DELWAQ FILE'
TYPE = STRING
INDEX = 77
TAILLE = 1
SUBMIT = 'T3DL10-WRITE;T3DL10;FACUL;BIN;ECR;DELWAQPTS'
DEFAUT = ''
DEFAUT1 = ''
MNEMO = 'T3D\_FILES(T3DL10)\%NAME'
APPARENCE =
'LISTE IS FICHIER'
RUBRIQUE =
'COUPLAGE';'DELWAQ';''
RUBRIQUE1 =
'COUPLING';'DELWAQ';''
NIVEAU = 0
AIDE =
'Fichier de resultats pour le chainage avec DELWAQ.'
AIDE1 =
'Results file for chaining with DELWAQ.'
/
NOM = 'FICHIER DELWAQ DE LA TEMPERATURE'
NOM1 = 'TEMPERATURE DELWAQ FILE'
TYPE = STRING
INDEX = 71
TAILLE = 1
SUBMIT = 'TDDL8-WRITE;T3DDL8;FACUL;BIN;ECR;DELWAQPTS'
DEFAUT = ''
DEFAUT1 = ''
MNEMO = 'T3D\_FILES(T3DDL8)\%NAME'
APPARENCE =
'LISTE IS FICHIER'
RUBRIQUE =
'COUPLAGE';'DELWAQ';''
RUBRIQUE1 =
'COUPLING';'DELWAQ';''
NIVEAU = 0
AIDE =
'Fichier de resultats pour le chainage avec DELWAQ.'
AIDE1 =
'Results file for chaining with DELWAQ.'
/
NOM = 'FICHIER DELWAQ DE LA SALINITE'
NOM1 = 'SALINITY DELWAQ FILE'
TYPE = STRING
INDEX = 70
TAILLE = 1
SUBMIT = 'T3DDL4-WRITE;T3DDL4;FACUL;BIN;ECR;DELWAQPTS'
DEFAUT = ''
DEFAUT1 = ''
MNEMO = 'T3D\_FILES(T3DDL4)\%NAME'
APPARENCE =
'LISTE IS FICHIER'
RUBRIQUE =
'COUPLAGE';'DELWAQ';''
RUBRIQUE1 =
'COUPLING';'DELWAQ';''
NIVEAU = 0
AIDE =
'Fichier de resultats pour le chainage avec DELWAQ.'
AIDE1 =
'Results file for chaining with DELWAQ.'
/
NOM = 'VITESSE POUR DELWAQ'
NOM1 = 'VELOCITY FOR DELWAQ'
TYPE = LOGICAL
INDEX = 79
TAILLE = 1
DEFAUT = NON
DEFAUT1 = NO
MNEMO = 'VELO\_DEL'
RUBRIQUE =
'COUPLAGE';'DELWAQ';''
RUBRIQUE1 =
'COUPLING';'DELWAQ';''
NIVEAU = 0
AIDE =
'Decide de la sortie de la vitesse pour DELWAQ.'
AIDE1 =
'Triggers the output of velocity for DELWAQ.'
/
NOM = 'DIFFUSION POUR DELWAQ'
NOM1 = 'DIFFUSION FOR DELWAQ'
TYPE = LOGICAL
INDEX = 80
TAILLE = 1
DEFAUT = NON
DEFAUT1 = NO
MNEMO = 'DIFF\_DEL'
RUBRIQUE =
'COUPLAGE';'DELWAQ';''
RUBRIQUE1 =
'COUPLING';'DELWAQ';''
NIVEAU = 0
AIDE =
'Decide de la sortie de la diffusion pour DELWAQ.'
AIDE1 =
'Triggers the output of diffusion for DELWAQ.'
/
NOM = 'TEMPERATURE POUR DELWAQ'
NOM1 = 'TEMPERATURE FOR DELWAQ'
TYPE = LOGICAL
INDEX = 78
TAILLE = 1
DEFAUT = NON
DEFAUT1 = NO
MNEMO = 'TEMP\_DEL'
RUBRIQUE =
'COUPLAGE';'DELWAQ';''
RUBRIQUE1 =
'COUPLING';'DELWAQ';''
NIVEAU = 0
AIDE =
'Decide de la sortie de la temperature pour DELWAQ.'
AIDE1 =
'Triggers the output of temperature for DELWAQ.'
/
NOM = 'SALINITE POUR DELWAQ'
NOM1 = 'SALINITY FOR DELWAQ'
TYPE = LOGICAL
INDEX = 77
TAILLE = 1
DEFAUT = NON
DEFAUT1 = NO
MNEMO = 'SALI\_DEL'
RUBRIQUE =
'COUPLAGE';'DELWAQ';''
RUBRIQUE1 =
'COUPLING';'DELWAQ';''
NIVEAU = 0
AIDE =
'Decide de la sortie de la salinite pour DELWAQ.'
AIDE1 =
'Triggers the output of salinity for DELWAQ.'
/
////////////////////////////////////////////////////////////////////////
///// 9.5-GAIA
////////////////////////////////////////////////////////////////////////
NOM = 'FICHIER DES PARAMETRES DE GAIA'
NOM1 = 'GAIA STEERING FILE'
TYPE = STRING
INDEX = 98
TAILLE = 1
DEFAUT = ''
DEFAUT1 = ''
MNEMO = 'PAS DE MNEMO'
RUBRIQUE =
'COUPLAGE';'GAIA';''
RUBRIQUE1 =
'COUPLING';'GAIA';''
NIVEAU = 0
AIDE =
'Fichier des parametres de \gaia en cas de couplage
interne.'
AIDE1 =
'\gaia parameter file in case of internal coupling.'
/
////////////////////////////////////////////////////////////////////////
///// 9.6-KHIONE
////////////////////////////////////////////////////////////////////////
NOM = 'FICHIER DES PARAMETRES DE KHIONE'
NOM1 = 'KHIONE STEERING FILE'
TYPE = STRING
INDEX = 4
TAILLE = 1
DEFAUT = ''
DEFAUT1 = ''
MNEMO = 'PAS DE MNEMO'
RUBRIQUE =
'COUPLAGE';'KHIONE';''
RUBRIQUE1 =
'COUPLING';'KHIONE';''
NIVEAU = 0
AIDE =
'Fichier des parametres de \khione en cas de couplage
interne.'
AIDE1 =
'\khione parameter file in case of internal coupling.'
/
////////////////////////////////////////////////////////////////////////
/// 10-AUTOMATIC DIFFERENTIATION
////////////////////////////////////////////////////////////////////////
NOM = 'AD NOMBRE DES DERIVEES'
NOM1 = 'AD NUMBER OF DERIVATIVES'
TYPE = INTEGER
INDEX = 13
TAILLE = 1
DEFAUT = 0
DEFAUT1 = 0
MNEMO = 'NADVAR'
RUBRIQUE =
'DIFFERENTIATION AUTOMATIQUE';'';''
RUBRIQUE1 =
'AUTOMATIC DIFFERENTIATION';'';''
NIVEAU = 1
AIDE =
'Definit le nombre de derivees utilisateurs, dans le cadre
de la differentiation algorithmique.'
AIDE1 =
'Defines the number of user derivatives, within the framework
of the algorithmic differentiation.'
/
NOM = 'AD NOMS DES DERIVEES'
NOM1 = 'AD NAMES OF DERIVATIVES'
TYPE = STRING
INDEX = 13
TAILLE = 2
MNEMO = 'NAME\_ADVAR'
RUBRIQUE =
'DIFFERENTIATION AUTOMATIQUE';'';''
RUBRIQUE1 =
'AUTOMATIC DIFFERENTIATION';'';''
NIVEAU = 1
AIDE =
'Noms des derivees utilisateurs en 32 caracteres,
         16 pour le nom, 16 pour l''unite.'
AIDE1 =
'Name of user derivatives in 32 characters,
         16 for the name, 16 for the unit.'
/
NOM = 'AD NOMBRE DE DIRECTIONS'
NOM1 = 'AD NUMBER OF DIRECTIONS'
TYPE = INTEGER
INDEX = 69
TAILLE = 1
DEFAUT = 1
DEFAUT1 = 1
MNEMO = 'AD\_NUMOFDIR'
RUBRIQUE =
'DIFFERENTIATION AUTOMATIQUE';'';''
RUBRIQUE1 =
'AUTOMATIC DIFFERENTIATION';'';''
NIVEAU = 1
AIDE =
'Definit le nombre de directions de differentiateurs.'
AIDE1 =
'Defines the number of directions for the differentiators.'
/
NOM = 'AD SOLVEUR LINEAIRE SYMBOLIQUE'
NOM1 = 'AD SYMBOLIC LINEAR SOLVER'
TYPE = LOGICAL
INDEX = 32
TAILLE = 1
DEFAUT = NON
DEFAUT1 = NO
MNEMO = 'AD\_SYMBLINSOLV'
RUBRIQUE =
'DIFFERENTIATION AUTOMATIQUE';'';''
RUBRIQUE1 =
'AUTOMATIC DIFFERENTIATION';'';''
NIVEAU = 1
AIDE =
'Permet le solveur lineaire symbolique pour l AD.'
AIDE1 =
'Enables the symbolic linear solver for AD.'
/
NOM = 'AD REMISE A ZERO DES DERIVEES DU SOLVEUR LINEAIRE'
NOM1 = 'AD LINEAR SOLVER RESET DERIVATIVES'
TYPE = LOGICAL
INDEX = 33
TAILLE = 1
DEFAUT = OUI
DEFAUT1 = YES
MNEMO = 'AD\_LINSOLV\_RESETDERIV'
RUBRIQUE =
'DIFFERENTIATION AUTOMATIQUE';'';''
RUBRIQUE1 =
'AUTOMATIC DIFFERENTIATION';'';''
NIVEAU = 1
AIDE =
'Remet a zero les derivees pour l AD.'
AIDE1 =
'Resets the derivatives for AD.'
/
NOM = 'AD CONVERGENCE DES DERIVEES POUR LE SOLVEUR LINEAIRE'
NOM1 = 'AD LINEAR SOLVER DERIVATIVE CONVERGENCE'
TYPE = LOGICAL
INDEX = 34
TAILLE = 1
DEFAUT = OUI
DEFAUT1 = YES
MNEMO = 'AD\_LINSOLV\_DERIVATIVE\_CONVERGENCE'
RUBRIQUE =
'DIFFERENTIATION AUTOMATIQUE';'';''
RUBRIQUE1 =
'AUTOMATIC DIFFERENTIATION';'';''
NIVEAU = 1
AIDE =
'Solveur lineaire iteratif : test de convergence des derivees
pour l AD.'
AIDE1 =
'Iterative linear solvers: derivative convergence test for AD.'
/
////////////////////////////////////////////////////////////////////////
/// 11-INTERNAL
////////////////////////////////////////////////////////////////////////
NOM = 'PARTITIONNEUR'
NOM1 = 'PARTITIONING TOOL'
TYPE = STRING
INDEX = 101
TAILLE = 1
DEFAUT = 'METIS'
DEFAUT1 = 'METIS'
MNEMO = ''
CHOIX =
'METIS';
'SCOTCH';
'PARMETIS';
'PTSCOTCH'
CHOIX1 =
'METIS';
'SCOTCH';
'PARMETIS';
'PTSCOTCH'
RUBRIQUE =
'INTERNE';'';''
RUBRIQUE1 =
'INTERNAL';'';''
NIVEAU = 1
AIDE =
'Choix du partitionneur :
\begin{itemize}
\item 1 : METIS ;
\item 2 : SCOTCH ;
\item 3 : PARMETIS ;
\item 4 : PTSCOTCH.
\end{itemize}'
AIDE1 =
'Partitioning tool selection:
\begin{itemize}
\item 1: METIS,
\item 2: SCOTCH,
\item 3: PARMETIS,
\item 4: PTSCOTCH.
\end{itemize}'
/
NOM = 'FICHIER DES PARAMETRES'
NOM1 = 'STEERING FILE'
TYPE = STRING
INDEX = 8
TAILLE = 1
SUBMIT = 'INUTILE;T3DCAS;OBLIG;ASC;LIT;CAS'
DEFAUT = ''
DEFAUT1 = ''
MNEMO = ''
RUBRIQUE =
'INTERNE';'';''
RUBRIQUE1 =
'INTERNAL';'';''
NIVEAU = 1
AIDE =
'Nom du fichier contenant les parametres du calcul a realiser.'
AIDE1 =
'Name of the file containing the parameters of the computation.
Written by the user.'
/
NOM = 'DICTIONNAIRE'
NOM1 = 'DICTIONARY'
TYPE = STRING
INDEX = 100
TAILLE = 1
SUBMIT = 'INUTILE;T3DDICO;OBLIG;ASC;LIT;DICO'
DEFAUT = 'telemac3d.dico'
DEFAUT1 = 'telemac3d.dico'
MNEMO = ''
RUBRIQUE =
'INTERNE';'';''
RUBRIQUE1 =
'INTERNAL';'';''
NIVEAU = 100
AIDE =
'Dictionnaire des mots cles.'
AIDE1 =
'Key word dictionary.'
/
NOM = 'CONCATENATION SORTIE PARTEL'
NOM1 = 'CONCATENATE PARTEL OUTPUT'
TYPE = LOGICAL
INDEX = 58
TAILLE = 1
DEFAUT = NON
DEFAUT1 = NO
MNEMO = 'CONCAT\_PARTEL'
RUBRIQUE =
'INTERNE';'';''
RUBRIQUE1 =
'INTERNAL';'';''
NIVEAU = 0
AIDE =
'Avec cette option partel ne generera non plus un fichier (GEO/CLI/PAR)
par processeur mais une concatenation de ceux-ci, ainsi qu''un fichier
d''index associe. Ainsi plutot que d''avoir 3P fichiers, il n''y en a
plus que 6.'
AIDE1 =
'With this option partel no more generates a file (GEO/CLI/PAR) per
process but a single concatenate file of them, associated to an index
file. Then instead of having partel generating 3P files, it only
generates 6 files.'
/
