/---------------------------------------------------------------------
/ TELEMAC2D Version v8p2
/ VALIDATION TEST FOR HYDROSTATIC RECONSTRUCTION OF CHEN
/
/---------------------------------------------------------------------
DURATION OF RAIN OR EVAPORATION IN HOURS = 0.169444444
RAIN OR EVAPORATION                      = YES
RAIN OR EVAPORATION IN MM PER DAY        = 620.
/
/---------------------------------------------------------------------
/ EQUATIONS, INITIAL CONDITIONS
/---------------------------------------------------------------------

INITIAL CONDITIONS = 'CONSTANT DEPTH'
INITIAL DEPTH  = 0.
/---------------------------------------------------------------------
/ INPUT-OUTPUT, FILES
/---------------------------------------------------------------------
BOUNDARY CONDITIONS FILE = 'geo_flume.cli'
GEOMETRY FILE            = 'geo_flume_2p.slf'
RESULTS FILE             = 'r2d_rain.slf'
FORTRAN FILE             = 'user_fortran'
/---------------------------------------------------------------------
/ INPUT-OUTPUT, GRAPHICS AND LISTING
/---------------------------------------------------------------------
LISTING PRINTOUT PERIOD         = 50
GRAPHIC PRINTOUT PERIOD         = 10
VARIABLES FOR GRAPHIC PRINTOUTS = U,V,B,H
MASS-BALANCE                    = YES
/---------------------------------------------------------------------
/ INPUT-OUTPUT, INFORMATION
/---------------------------------------------------------------------
TITLE = 'Test hydrostatic reconstruction'
/---------------------------------------------------------------------
/ NUMERICAL PARAMETERS
/---------------------------------------------------------------------
EQUATIONS                           = 'SAINT-VENANT FV'
FINITE VOLUME SCHEME                = 1
TIME STEP                           = 1.
DURATION                            = 1000.
VARIABLE TIME-STEP                  = YES
DESIRED COURANT NUMBER              = 0.9
OPTION OF THE HYDROSTATIC RECONSTRUCTION = 2
LAW OF BOTTOM FRICTION              = 0
DIFFUSION OF VELOCITY               = NO
