/----------------------------------------------------------------------
/
/ Steering file for the hydrodynamics: TELEMAC-2D
/
TITLE = 'WATER FLOWING DOWN A LONG FLUME'
/
/----------------------------------------------------------------------
/  FILES
/----------------------------------------------------------------------
/
GEOMETRY FILE                = 'geo_longflume.slf'
BOUNDARY CONDITIONS FILE     = 'geo_longflume.cli'
RESULTS FILE                 = 'ini_longflume.slf'
/
/----------------------------------------------------------------------
/  GENERAL INFORMATIONS - OUTPUTS
/----------------------------------------------------------------------
/
EQUATIONS                        = 'SAINT-VENANT FV'
VARIABLES FOR GRAPHIC PRINTOUTS  = 'U,V,H,S'
/
GRAPHIC PRINTOUT PERIOD          = 30
LISTING PRINTOUT PERIOD          = 600
MASS-BALANCE                     = YES
TIME STEP                        = 1.
DURATION                         = 3600
DESIRED COURANT NUMBER           = 0.9
VARIABLE TIME-STEP               = YES
INFORMATION ABOUT SOLVER         = YES
/
/----------------------------------------------------------------------
/  INITIAL CONDITIONS
/----------------------------------------------------------------------
/
ORIGINAL DATE OF TIME      = 2016;12;2
ORIGINAL HOUR OF TIME      = 0;0;0
/
COMPUTATION CONTINUED      = NO
INITIAL CONDITIONS         = 'CONSTANT DEPTH'
INITIAL DEPTH              = 2.6265
/
/----------------------------------------------------------------------
/  BOUNDARY CONDITIONS
/----------------------------------------------------------------------
/
PRESCRIBED FLOWRATES          = 0.0    ; 300
PRESCRIBED ELEVATIONS         = 6.6265 ;  0.0
VELOCITY PROFILES             = 1      ;  1
/
CONTINUITY CORRECTION      = YES
/
/----------------------------------------------------------------------
/  PHYSICAL PARAMETERS
/----------------------------------------------------------------------
/
LAW OF BOTTOM FRICTION  = 4
FRICTION COEFFICIENT    = 0.025
