/----------------------------------------------------------------------
/
/           STEERING FILE
/
/           TELEMAC
/----------------------------------------------------------------------
/                    SETTINGS
/----------------------------------------------------------------------
/
COUPLING WITH : 'TOMAWAC2'
/
WAVE DRIVEN CURRENTS      = YES
TOMAWAC STEERING FILE     = 'tom_same.cas'
COUPLING PERIOD FOR TOMAWAC = 1
/
BOUNDARY CONDITIONS FILE  = 'geo_t2d_same-tom2tel.cli'
GEOMETRY FILE             = 'geo_t2d_same-tom2tel.slf'
RESULTS FILE              = 't2d_same.slf'
RESULTS FILE FORMAT='SERAFIND'
ASCII ATMOSPHERIC DATA FILE     = 'fo1_wind'
/----------------------------------------------------------------------
/
WIND                                         = YES
OPTION FOR WIND                              = 2
COEFFICIENT OF WIND INFLUENCE                = 1.2615E-3
/----------------------------------------------------------------------
/ INITIAL CONDITIONS
/----------------------------------------------------------------------
INITIAL CONDITIONS = 'ZERO ELEVATION'
/
/----------------------------------------------------------------------
/                         GENERAL OPTIONS
/----------------------------------------------------------------------
/
TITLE = 'LITTORAL'
/
VARIABLES FOR GRAPHIC PRINTOUTS = 'H,S,B,U,V,X,Y'
/
TIME STEP               = 10.
NUMBER OF TIME STEPS    = 100
GRAPHIC PRINTOUT PERIOD = 10
LISTING PRINTOUT PERIOD = 10
/----------------------------------------------------------------------
TURBULENCE MODEL                   = 4
VELOCITY DIFFUSIVITY               = 1.e-6
CORIOLIS                           = NO
/
/------------------------------------------------
/         BOUNDARY CONDITIONS
/------------------------------------------------
/
BOTTOM SMOOTHINGS            = 0
LAW OF BOTTOM FRICTION       = 5
FRICTION COEFFICIENT         = 0.05
/
PRESCRIBED ELEVATIONS        = 0.
/-------------------------------------------
/          NUMERICAL OPTIONS
/-------------------------------------------
/
DISCRETIZATIONS IN SPACE = 12;11
/
TIDAL FLATS   = NO
H CLIPPING    = NO
/
MASS-BALANCE  = YES
/
SOLVER ACCURACY                         = 1e-05
MAXIMUM NUMBER OF ITERATIONS FOR SOLVER = 100
/
TYPE OF ADVECTION                            = 1;5
NUMBER OF SUB-ITERATIONS FOR NON-LINEARITIES = 1
/
PROPAGATION                   = YES
IMPLICITATION FOR DEPTH       = 0.6
IMPLICITATION FOR VELOCITY    = 0.6
/
SOLVER                     = 7
SOLVER OPTION              = 4
MASS-LUMPING ON H          = 1.
MASS-LUMPING ON VELOCITY   = 0.9
/
/ DEFAULT VALUE UNTIL V8P1 KEPT FOR NON REGRESSION
TREATMENT OF THE LINEAR SYSTEM = 1
