/----------------------------------------------------------------------/
/ TELEMAC-2D + SISYPHE: propagation of a bump with cohesive sediments  /
/----------------------------------------------------------------------/
/
/----------------------------------------------------------------------/
/  FILES                                                               /
/----------------------------------------------------------------------/
/
/ --- GEOMETRY ---
GEOMETRY FILE				= 'geo_bosse_vase-t2d.slf'
BOUNDARY CONDITIONS FILE		= 'geo_bosse_vase-t2d.cli'
/
/ --- CODE ---
FORTRAN FILE                            = 'user_fortran'
/
/ --- RESULTS ---
RESULTS FILE				= 'r2d_bosse_vase-t2d.slf'
/
/----------------------------------------------------------------------/
/  GENERAL INFORMATIONS - OUTPUTS                                      /
/----------------------------------------------------------------------/
/
TITLE                = 'Propagation of a bump with cohesive sediments'
LISTING PRINTOUT PERIOD                 = 1000
GRAPHIC PRINTOUT PERIOD                 = 1000
VARIABLES FOR GRAPHIC PRINTOUTS         = 'U,V,H,S,B,US,Q,L'
/
/----------------------------------------------------------------------/
/  TIME DISCRETISATION                                                 /
/----------------------------------------------------------------------/
/
INITIAL TIME SET TO ZERO                = YES
TIME STEP			        = 0.1
NUMBER OF TIME STEPS                    = 10000
/
/----------------------------------------------------------------------/
/  COUPLING WITH SISYPHE                                               /
/----------------------------------------------------------------------/
/
COUPLING WITH                            = 'SISYPHE'
SISYPHE STEERING FILE                    = 'sis_bosse_vase-t2d.cas'
COUPLING PERIOD FOR SISYPHE              = 1
/
/---------------------------------------------------------------------
/ INITIAL CONDITIONS
/---------------------------------------------------------------------
/
COMPUTATION CONTINUED             = YES
PREVIOUS COMPUTATION FILE         = 'r2d_init_bosse_vase-t2d.slf'
/
/---------------------------------------------------------------------
/ BOUNDARY CONDITIONS
/---------------------------------------------------------------------
/
PRESCRIBED FLOWRATES              = 0.;0.25
PRESCRIBED ELEVATIONS             = 0.6;0.
OPTION FOR LIQUID BOUNDARIES      = 1;1
/
/----------------------------------------------------------------------/
/  BOTTOM FRICTION                                                     /
/----------------------------------------------------------------------/
/
LAW OF BOTTOM FRICTION			= 3
FRICTION COEFFICIENT			= 50.0
/
/----------------------------------------------------------------------/
/  TURBULENCE                                                          /
/----------------------------------------------------------------------/
/
TURBULENCE MODEL			= 1
VELOCITY DIFFUSIVITY			= 0.10
/
/----------------------------------------------------------------------/
/  TIDAL FLATS                                                         /
/----------------------------------------------------------------------/
/
TIDAL FLATS                             = NO
/
/----------------------------------------------------------------------/
/  NUMERICAL PARAMETERS                                                /
/----------------------------------------------------------------------/
/
MASS-BALANCE                        = YES
MASS-LUMPING ON H                   = 1.
/TREATMENT OF NEGATIVE DEPTHS        = 2
FREE SURFACE GRADIENT COMPATIBILITY = 0.9
CONTINUITY CORRECTION               = YES
TYPE OF ADVECTION                   = 1;5
SUPG OPTION                         = 0;0
SOLVER ACCURACY                     = 1.E-6
DISCRETIZATIONS IN SPACE            = 11;11
MATRIX STORAGE                      = 3
MATRIX-VECTOR PRODUCT               = 1
TREATMENT OF THE LINEAR SYSTEM      = 2
SOLVER                              = 1
