/
/-------------------------------------------------------------------/
/   TELEMAC-2D   -  VALIDATION TEST CASE  -                         /
/                       TEST CHANNEL                                /
/-------------------------------------------------------------------/
/
/----------------------------------------------
/  COMPUTER INFORMATIONS
/----------------------------------------------
/
GEOMETRY FILE                   = geo_tests_channel.slf
BOUNDARY CONDITIONS FILE        = geo_tests_channel.cli
RESULTS FILE                    = r2d_tests_channel.slf
LIQUID BOUNDARIES FILE          ='slts_38p32cm.prn'
/
/----------------------------------------------
/  GENERAL INFORMATIONS - OUTPUTS
/----------------------------------------------
/
TITLE                           = 'TEST CHANNEL 042'
VARIABLES FOR GRAPHIC PRINTOUTS = 'U,V,S,B,H'
GRAPHIC PRINTOUT PERIOD         = 40
LISTING PRINTOUT PERIOD         = 120
TIME STEP                       = 0.05
NUMBER OF TIME STEPS            = 1200
/
/----------------------------------------------
/  INITIAL CONDITIONS
/----------------------------------------------
/
INITIAL CONDITIONS              = 'CONSTANT ELEVATION'
INITIAL ELEVATION               = 0.3832
/
/----------------------------------------------
/  PHYSICAL PARAMETERS
/----------------------------------------------
/
LAW OF BOTTOM FRICTION          = 0
TURBULENCE MODEL                = 1
VELOCITY DIFFUSIVITY            = 0.
/
/----------------------------------------------
/  BOUNDARY CONDITIONS
/----------------------------------------------
/
/PRESCRIBED ELEVATIONS           = 0.07
/
/----------------------------------------------
/  NUMERICAL PARAMETERS
/----------------------------------------------
/
DISCRETIZATIONS IN SPACE        = 12;11
ADVECTION                       = YES
SOLVER                          = 7
SOLVER OPTION                   = 2
SOLVER ACCURACY                 = 1.E-5
MAXIMUM NUMBER OF ITERATIONS FOR SOLVER = 600
MASS-BALANCE                    = YES
/
/ DEFAULT VALUE UNTIL V8P1 KEPT FOR NON REGRESSION
TREATMENT OF THE LINEAR SYSTEM = 1
