/----------------------------------------------------------------------
/
/ Steering file for the hydrodynamics: TELEMAC-2D
/
TITLE = 'MASS-EXCHANGES - INI'
/
/----------------------------------------------------------------------
/  FILES
/----------------------------------------------------------------------
/
GEOMETRY FILE                = 'geo_longflume.slf'
BOUNDARY CONDITIONS FILE     = 'geo_longflume.cli'
RESULTS FILE                 = 'ini_longflume.slf'
/
/----------------------------------------------------------------------
/  GENERAL INFORMATIONS - OUTPUTS
/----------------------------------------------------------------------
/
VARIABLES FOR GRAPHIC PRINTOUTS  = 'U,V,H,S'
/
GRAPHIC PRINTOUT PERIOD          = 60
LISTING PRINTOUT PERIOD          = 300
MASS-BALANCE                     = YES
TIME STEP                        = 1.
NUMBER OF TIME STEPS             = 3600
INFORMATION ABOUT SOLVER         = YES
/
/----------------------------------------------------------------------
/  INITIAL CONDITIONS
/----------------------------------------------------------------------
/
ORIGINAL DATE OF TIME      = 2016;12;2
ORIGINAL HOUR OF TIME      = 0;0;0
/
COMPUTATION CONTINUED      = NO
INITIAL CONDITIONS         = 'CONSTANT DEPTH'
INITIAL DEPTH              = 2.6265
/
/----------------------------------------------------------------------
/  BOUNDARY CONDITIONS
/----------------------------------------------------------------------
/
PRESCRIBED FLOWRATES          = 0.0    ; 300
PRESCRIBED ELEVATIONS         = 6.6265 ;  0.0
VELOCITY PROFILES             = 1      ;  1
/
CONTINUITY CORRECTION      = YES
/ OPTION FOR LIQUID BOUNDARIES = 1;1
/
/----------------------------------------------------------------------
/  PHYSICAL PARAMETERS
/----------------------------------------------------------------------
/
TIDAL FLATS = NO
/
LAW OF BOTTOM FRICTION  = 4
FRICTION COEFFICIENT    = 0.025
/
TURBULENCE MODEL        = 1
/
/ VELOCITY DIFFUSIVITY  = 1.
/ OPTION FOR THE DIFFUSION OF VELOCITIES = 2
/
/----------------------------------------------------------------------
/  NUMERICAL PARAMETERS
/----------------------------------------------------------------------
/
DISCRETIZATIONS IN SPACE        = 11;11
TYPE OF ADVECTION               =  1;5
SUPG OPTION                     =  1;0
/
FREE SURFACE GRADIENT COMPATIBILITY   = 0.9
IMPLICITATION FOR DEPTH               = 1.0
IMPLICITATION FOR VELOCITY            = 1.0
/
MASS-LUMPING ON H = 1
H CLIPPING = YES
/ MINIMUM VALUE OF DEPTH = 0.001
/
SOLVER ACCURACY                         = 1.E-8
MAXIMUM NUMBER OF ITERATIONS FOR SOLVER = 250
/
/----------------------------------------------------------------------
/
