/----------------------------------------------------------------------
/
/ Steering file for the hydrodynamics: TELEMAC-2D
/
TITLE = 'WATER FLOWING IN A RACETRACK'
/
/----------------------------------------------------------------------
/  FILES
/----------------------------------------------------------------------
/
FORTRAN FILE                 = 'user_fortran_tsanghanley'
GEOMETRY FILE                = 'geo_racetrack_tsanghanley.slf'
BOUNDARY CONDITIONS FILE     = 'geo_racetrack_tsanghanley.cli'
RESULTS FILE                 = 'ini_racetrack_tsanghanley.slf'
/
/----------------------------------------------------------------------
/  GENERAL INFORMATIONS - OUTPUTS
/----------------------------------------------------------------------
/
VARIABLES FOR GRAPHIC PRINTOUTS  = 'U,V,H,S'
/
GRAPHIC PRINTOUT PERIOD          = 600
LISTING PRINTOUT PERIOD          = 600
MASS-BALANCE                     = YES
/
DURATION                         = 600
TIME STEP                        = 0.01
/
/----------------------------------------------------------------------
/  INITIAL CONDITIONS
/----------------------------------------------------------------------
/
COMPUTATION CONTINUED      = NO
INITIAL CONDITIONS         = 'CONSTANT DEPTH'
INITIAL DEPTH              = 0.11
/
/----------------------------------------------------------------------
/  PHYSICAL PARAMETERS
/----------------------------------------------------------------------
/
/ PROPELLER (USER DEFINED IN PROSOU, NEEDS WIND ACTIVATED)
WIND = YES
/
LAW OF BOTTOM FRICTION  = 4
FRICTION COEFFICIENT    = 0.011
/
/ TURBULENCE MODEL        = 1
/
DIFFUSION OF VELOCITY   = YES
VELOCITY DIFFUSIVITY    = 2.E-6
OPTION FOR THE DIFFUSION OF VELOCITIES = 2
/
TIDAL FLATS = NO
/
/----------------------------------------------------------------------
/  NUMERICAL PARAMETERS 
/----------------------------------------------------------------------
/
DISCRETIZATIONS IN SPACE                   = 11;11
TYPE OF ADVECTION                          = 5;5
TREATMENT OF THE LINEAR SYSTEM             = 2
SCHEME OPTION FOR ADVECTION OF VELOCITIES  = 4
SUPG OPTION                                = 2;2
/
FREE SURFACE GRADIENT COMPATIBILITY   = 0.9
IMPLICITATION FOR DEPTH               = 1.0
IMPLICITATION FOR VELOCITY            = 1.0
/
MASS-LUMPING ON H = 1
H CLIPPING = YES
MINIMUM VALUE OF DEPTH = 0.001
/
SOLVER ACCURACY                         = 1.E-8
MAXIMUM NUMBER OF ITERATIONS FOR SOLVER = 250
INFORMATION ABOUT SOLVER                = YES
/
/----------------------------------------------------------------------
/
