This folder should be empty.
Image in this folder are generated through validateTELEMAC.py
