/
/-------------------------------------------------------------------/
/   TELEMAC-2D			          	                    /
/-------------------------------------------------------------------/
/
/
/----------------------------------------------
/  COMPUTER INFORMATIONS
/----------------------------------------------
/
GEOMETRY FILE                    = geo_WC2003.slf
BOUNDARY CONDITIONS FILE         = geo_WC2003.cli
RESULTS FILE                     = r2d_WC2003.slf
PREVIOUS COMPUTATION FILE        = ini_WC2003_BOMC4.slf
FORTRAN FILE 			 = user_fortran
SISYPHE STEERING FILE            = sis_WC2003_BULK_5CL.cas
/----------------------------------------------
/  COUPLING WITH SISYPHE
/----------------------------------------------
/
COUPLING WITH 			 = 'SISYPHE'
COUPLING PERIOD FOR SISYPHE	 = 1
/----------------------------------------------
/  GENERAL INFORMATIONS - OUTPUTS
/----------------------------------------------
/
TITLE                           = 'Hotstart'
VARIABLES FOR GRAPHIC PRINTOUTS ='B,Q,H,U,V,F,US'
GRAPHIC PRINTOUT PERIOD         = 1000
LISTING PRINTOUT PERIOD         = 200
TIME STEP                       = 0.01
DURATION                        = 20
MASS-BALANCE                     = YES
INFORMATION ABOUT SOLVER         = YES
/
/----------------------------------------------
/  INITIAL CONDITIONS
/----------------------------------------------
/
COMPUTATION CONTINUED           = YES
INITIAL TIME SET TO ZERO     	= YES
INITIAL CONDITIONS              = 'CONSTANT ELEVATION'
INITIAL ELEVATION               = 0.0
/
/----------------------------------------------
/  PHYSICAL PARAMETERS
/----------------------------------------------
/
VELOCITY PROFILES 		= 1;1
BOTTOM SMOOTHINGS		= 1
LAW OF BOTTOM FRICTION		= 3 /STRICKLER
FRICTION COEFFICIENT		= 47
/
/----------------------------------------------
/  BOUNDARY CONDITIONS
/----------------------------------------------
/
/STAGE-DISCHARGE CURVES		 = 0;1
OPTION FOR LIQUID BOUNDARIES   	 = 2;2
PRESCRIBED ELEVATIONS		= 1.017;0.0
PRESCRIBED FLOWRATES		= 0.0;0.0486
/
/
/----------------------------------------------
/  NUMERICAL PARAMETERS
/----------------------------------------------
/
TIDAL FLATS = YES
OPTION FOR THE TREATMENT OF TIDAL FLATS = 1
CONTINUITY CORRECTION = YES
TREATMENT OF NEGATIVE DEPTHS = 2
MASS-LUMPING ON H = 1.
H CLIPPING                        = NO
TYPE OF ADVECTION                 = 1;5
SUPG OPTION                       = 0;0
TREATMENT OF THE LINEAR SYSTEM    = 2
SOLVER                            = 7
SOLVER OPTION                     = 3
