/V6P1
/
/
/                   COUPLAGE SISYPHE-TELEMAC2D
/
/           FICHIER DE DECLARATION DES MOTS CLES DU CODE
/
/
/                            SISYPHE
/
/
/---------------------------------------------------------------
/---------------------------------------------------------------
/                         FICHIERS
/---------------------------------------------------------------
GEOMETRY FILE = geo_bump2d-t2d.slf
BOUNDARY CONDITIONS FILE = geo_bump2d-t2d.cli
RESULTS FILE = sis_bump2d-t2d.slf
FORTRAN FILE = 'user_fortran'
/
/---------------------------------------------------------------
/                       SORTIES GRAPHIQUES
/ --------------------------------------------------------------
TITLE = 'CAS6- BOSSE 2D DANS UN CANAL LARGE'
VARIABLES FOR GRAPHIC PRINTOUTS = U,V,B,S,E,H,P,I,J,Q,M,KS,TOB
MASS-BALANCE = YES
/
/---------------------------------------------------------------
/                     CONSTANTES PHYSIQUES
/ --------------------------------------------------------------
/MASSE VOLUMIQUE DE L'EAU = 1000
/VISCOSITE CINEMATIQUE EAU =10-6
/
/---------------------------------------------------------------
/                       TRANSPORT SOLIDE
/ --------------------------------------------------------------
/
/LOI DE FROTTEMENT SUR LE FOND = 3
/COEFFICIENT DE FROTTEMENT = 30
/Meyer-Peter
BED-LOAD TRANSPORT FORMULA = 0
BED LOAD = YES
SUSPENSION = NO
/NON COHESIVE BED POROSITY = 0.4
NON COHESIVE BED POROSITY = 0.0
/ 1mm
SEDIMENT DIAMETERS = 0.001
SKIN FRICTION CORRECTION = 0
LAW OF BOTTOM FRICTION = 5
FRICTION COEFFICIENT = 0.025
SEDIMENT DENSITY = 2650
SLOPE EFFECT = NO
/
/--------------------------------------------------------------
/                SHEMA NUMERIQUE ET SOLVEUR
/--------------------------------------------------------------
TIDAL FLATS = NO
SOLVER : 1
SOLVER OPTION :3
SOLVER ACCURACY = 1.E-10
