# _____                              _______________________________
# ____/ TELEMAC Project Definitions /______________________________/
#
[Configurations]
configs:    debgfopenmpi
#
[general]
modules:    system
#
mods_all:   -I <config>
#
sfx_zip:    .gztar
sfx_lib:    .a
sfx_obj:    .o
sfx_mod:    .mod
sfx_exe:
#
val_root:   <root>/examples
val_rank:   all
# also possible val_rank:   <3 >7 6
#
cmd_obj_c: gcc -c <srcName> -o <objName>

# _____                         ____________________________________
# ____/ Debian gfortran scalar /___________________________________/
[debgfortrans]
#
cmd_obj:    gfortran -c -O3 -fconvert=big-endian -frecord-marker=4 <mods> <incs> <f95name>
cmd_lib:    ar cru <libname> <objs>
cmd_exe:    gfortran -fconvert=big-endian -frecord-marker=4 -v -o <exename> <objs> <libs>
#
# _____                               ____________________________________
# ____/ Debian gfortran scalar debug /___________________________________/
[debgfortransdbg]
#
cmd_obj:    gfortran -c -g -fbounds-check -Wall -fbacktrace -finit-real=nan -fconvert=big-endian -frecord-marker=4 <mods> <incs> <f95name>
cmd_lib:    ar cru <libname> <objs>
cmd_exe:    gfortran -fconvert=big-endian -frecord-marker=4 -v -o <exename> <objs> <libs>
#
# _____                          ___________________________________
# ____/ Debian gfortran openMPI /__________________________________/
[debgfopenmpi]
#
par_cmdexec:   <config>/partel < PARTEL.PAR >> <partel.log>
#
mpi_cmdexec:   /usr/bin/mpiexec -wdir <wdir> -n <ncsize> <exename>
mpi_hosts:
#
cmd_obj:    /usr/bin/mpif90 -c -O3 -DHAVE_MPI -fconvert=big-endian -frecord-marker=4 <mods> <incs> <f95name>
cmd_lib:    ar cru <libname> <objs>
cmd_exe:    /usr/bin/mpif90 -fconvert=big-endian -frecord-marker=4 -lpthread -v -lm -o <exename> <objs> <libs>
#
mods_all:   -I <config>
#
libs_all:    /usr/lib64/openmpi/lib/libmpi.so.0.0.2 /home/telemac/metis-5.0.2/build/Linux-x86_64/libmetis/libmetis.a
#
# _____                                ___________________________________
# ____/ Debian gfortran openMPI debug /__________________________________/
[debgfopenmpidbg]
#
par_cmdexec:   <config>/partel < PARTEL.PAR >> <partel.log>
#
mpi_cmdexec:   /usr/bin/mpiexec -wdir <wdir> -n <ncsize> <exename>
mpi_hosts:
#
cmd_obj:    /usr/bin/mpif90 -c -g -fbounds-check -Wall -fbacktrace -finit-real=nan -DHAVE_MPI -fconvert=big-endian -frecord-marker=4 <mods> <incs> <f95name>
cmd_lib:    ar cru <libname> <objs>
cmd_exe:    /usr/bin/mpif90 -fconvert=big-endian -frecord-marker=4 -lpthread -v -lm -o <exename> <objs> <libs>
#
mods_all:   -I <config>
#
incs_all:  -I /usr/include/mpi/
libs_all:  /usr/lib64/openmpi/lib/libmpi.so.0.0.2 /home/telemac/metis-5.0.2/build/Linux-x86_64/libmetis/libmetis.a
#
