/----------------------------------------------------------------------
/
/ This case demonstrate KHIONE's ability to model static border ice
/    growth in a meandering trapezoidal flume.
/
/ Steering file for the hydrodynamics: TELEMAC-2D
/
TITLE = 'BORDER ICE GROWTH IN A MEANDERING TRAPEZOIDAL FLUME'
/
/----------------------------------------------------------------------
/  FILES
/----------------------------------------------------------------------
/
GEOMETRY FILE                = 'geo_sineflume.slf'
BOUNDARY CONDITIONS FILE     = 'geo_sineflume.cli'
RESULTS FILE                 = 'r2d_border-ice.slf'
/
/----------------------------------------------------------------------
/  GENERAL INFORMATIONS - OUTPUTS
/----------------------------------------------------------------------
/
VARIABLES FOR GRAPHIC PRINTOUTS  = 'B,U,V,H,S,T1'
/
GRAPHIC PRINTOUT PERIOD          = 60
LISTING PRINTOUT PERIOD          = 180
MASS-BALANCE                     = YES
TIME STEP                        = 1.
NUMBER OF TIME STEPS             = 1800
INFORMATION ABOUT SOLVER         = YES
/
/----------------------------------------------------------------------
/  TRACER(S)
/----------------------------------------------------------------------
/
DIFFUSION OF TRACERS                 = NO
/COEFFICIENT FOR DIFFUSION OF TRACERS = 0.
/
/----------------------------------------------------------------------
/  INITIAL CONDITIONS
/----------------------------------------------------------------------
/
ORIGINAL DATE OF TIME      = 2016;12;2
ORIGINAL HOUR OF TIME      = 0;0;0
INITIAL TIME SET TO ZERO   = YES
/
COMPUTATION CONTINUED      = YES
PREVIOUS COMPUTATION FILE  = 'ini_border-ice.slf'
/
INITIAL VALUES OF TRACERS  = 0.002
/
/----------------------------------------------------------------------
/  BOUNDARY CONDITIONS
/----------------------------------------------------------------------
/
PRESCRIBED FLOWRATES          = -10.0  ; 10.0
PRESCRIBED ELEVATIONS         =   2.5  ;  2.5
VELOCITY PROFILES             =   4    ;  4
/
CONTINUITY CORRECTION         = YES
/ OPTION FOR LIQUID BOUNDARIES  =  2    ;  1
/
/ BOUND1 ( TEMPERATURE ); BOUND2 ...
PRESCRIBED TRACERS VALUES  =     0.0  ;  0.002
/
/----------------------------------------------------------------------
/  PHYSICAL PARAMETERS
/----------------------------------------------------------------------
/
TIDAL FLATS = YES
TREATMENT OF NEGATIVE DEPTHS = 2
OPTION FOR THE TREATMENT OF TIDAL FLATS = 1
/
LAW OF BOTTOM FRICTION  = 4
FRICTION COEFFICIENT    = 0.025
/
TURBULENCE MODEL        = 1
/
/ VELOCITY DIFFUSIVITY  = 1.
/ OPTION FOR THE DIFFUSION OF VELOCITIES = 2
/ COEFFICIENT FOR DIFFUSION OF TRACERS   = 1.0
/ OPTION FOR THE DIFFUSION OF TRACERS = 2
/
/----------------------------------------------------------------------
/  NUMERICAL PARAMETERS
/----------------------------------------------------------------------
/
DISCRETIZATIONS IN SPACE        = 11;11
TYPE OF ADVECTION               = 1;5;4
SUPG OPTION                     = 1;0;1
MASS-LUMPING ON H               = 1
/
FREE SURFACE GRADIENT COMPATIBILITY   = 0.9
IMPLICITATION FOR DEPTH               = 1.0
IMPLICITATION FOR VELOCITY            = 1.0
/
SOLVER                                  = 2
SOLVER ACCURACY                         = 1.E-8
MAXIMUM NUMBER OF ITERATIONS FOR SOLVER = 500
/
/----------------------------------------------------------------------
/  THERMIC PROCESS
/----------------------------------------------------------------------
/
COUPLING WITH          = 'KHIONE'
KHIONE STEERING FILE   = 'ice_border-ice.cas'
AIR PRESSURE           = YES
AIR TEMPERATURE = -15.
CLOUD COVER = 0.
/
/----------------------------------------------------------------------
/
RAIN OR EVAPORATION IN MM PER DAY = 0.
SPEED AND DIRECTION OF WIND = 0.;0.
