/----------------------------------------------------------------------
/
/ Steering file for the hydrodynamics: TELEMAC-2D
/
TITLE = 'WATER FLOWING DOWN A LONG FLUME'
/
/----------------------------------------------------------------------
/  FILES
/----------------------------------------------------
/
GEOMETRY FILE                = 'geo_longflume.slf'
BOUNDARY CONDITIONS FILE     = 'geo_longflume.cli'
RESULTS FILE                 = 'r2d_hydro_v01.slf'
/
/----------------------------------------------------------------------
/  GENERAL INFORMATIONS - OUTPUTS
/----------------------------------------------------------------------
/
VARIABLES FOR GRAPHIC PRINTOUTS  = 'U,V,B,F,H,S,T1'
/
GRAPHIC PRINTOUT PERIOD          = 360
LISTING PRINTOUT PERIOD          = 360
MASS-BALANCE                     = YES
TIME STEP                        = 5.
NUMBER OF TIME STEPS             = 3600 /7200
INFORMATION ABOUT SOLVER         = YES
/
/----------------------------------------------------------------------
/  TRACER(S)
/----------------------------------------------------------------------
/
DIFFUSION OF TRACERS                 = NO
/COEFFICIENT FOR DIFFUSION OF TRACERS = 0.
/
/----------------------------------------------------------------------
/  INITIAL CONDITIONS
/----------------------------------------------------------------------
/
ORIGINAL DATE OF TIME      = 2016;12;2
ORIGINAL HOUR OF TIME      = 0;0;0
INITIAL TIME SET TO ZERO   = YES
/
COMPUTATION CONTINUED      = NO
INITIAL CONDITIONS         = 'CONSTANT DEPTH'
INITIAL DEPTH              = 3.535
/
INITIAL VALUES OF TRACERS  = 5.E-2
/
/----------------------------------------------------------------------
/  BOUNDARY CONDITIONS
/----------------------------------------------------------------------
/
PRESCRIBED FLOWRATES          = 0.0    ; 300
PRESCRIBED ELEVATIONS         = 7.535  ;  0.0
VELOCITY PROFILES             = 1      ;  1
/
CONTINUITY CORRECTION      = YES
/
/ BOUND1 ( TEMPERATURE ); BOUND2 ...
PRESCRIBED TRACERS VALUES  =     0.0   ;  5.E-2
/
/----------------------------------------------------------------------
/  PHYSICAL PARAMETERS
/----------------------------------------------------------------------
/
TIDAL FLATS = NO
/
LAW OF BOTTOM FRICTION  = 4
FRICTION COEFFICIENT    = 0.025
/
TURBULENCE MODEL        = 1
VELOCITY DIFFUSIVITY    = 1.E-2
/ OPTION FOR THE DIFFUSION OF VELOCITIES = 2
/
/----------------------------------------------------------------------
/  NUMERICAL PARAMETERS
/----------------------------------------------------------------------
/
TREATMENT OF THE LINEAR SYSTEM  = 2 /1:PRIM 2:WAVE EQUATION
DISCRETIZATIONS IN SPACE        = 11;11
TYPE OF ADVECTION               =  1;5;1
SUPG OPTION                     =  2;1;2
/
FREE SURFACE GRADIENT COMPATIBILITY   = 0.9
IMPLICITATION FOR DEPTH               = 0.6
IMPLICITATION FOR VELOCITY            = 0.6
/
MASS-LUMPING ON H = 1.
/
SOLVER ACCURACY                         = 1.E-5
MAXIMUM NUMBER OF ITERATIONS FOR SOLVER = 250
/
/----------------------------------------------------------------------
/  THERMIC PROCESS
/----------------------------------------------------------------------
/
COUPLING WITH          = 'KHIONE'
KHIONE STEERING FILE   = 'ice_cover_v01.cas'
AIR PRESSURE           = YES
/
/----------------------------------------------------------------------
/
