/----------------------------------------------------------------------/
/ FILES
/----------------------------------------------------------------------/
BOUNDARY CONDITIONS FILE : 'geo_rouse-t3d.cli'
GEOMETRY FILE            : 'geo_rouse-t3d.slf'
RESULTS FILE             : 'gai_rouse-t3d.slf'
/----------------------------------------------------------------------/
/ OUTPUTS                                                              /
/----------------------------------------------------------------------/
VARIABLES FOR GRAPHIC PRINTOUTS : 'U,V,H,B,CS1,N,P,E,1A1,1ES,C2DS1'
MASS-BALANCE : YES
/----------------------------------------------------------------------/
/ GENERAL OPTIONS
/----------------------------------------------------------------------/
TITLE : 'Rouse profile with GAIA (Coupled with TELEMAC3D)'
/----------------------------------------------------------------------/
/ INITIAL CONDITIONS
/----------------------------------------------------------------------/
INITIAL SUSPENDED SEDIMENTS CONCENTRATION VALUES : 0.1
PRESCRIBED SUSPENDED SEDIMENTS CONCENTRATION VALUES : 0.0;0.1
/----------------------------------------------------------------------/
/  PHYSICAL OPTIONS
/----------------------------------------------------------------------/
CLASSES TYPE OF SEDIMENT : CO
CLASSES SEDIMENT DENSITY : 2650.0
CLASSES SETTLING VELOCITIES : 0.001
NUMBER OF LAYERS FOR INITIAL STRATIFICATION : 1
LAYERS INITIAL THICKNESS : 0.D0
LAYERS MASS TRANSFER : 0.D0
LAYERS CRITICAL EROSION SHEAR STRESS OF THE MUD : 0.1
LAYERS PARTHENIADES CONSTANT : 4.0E-4
LAYERS MUD CONCENTRATION : 500.D0
SKIN FRICTION CORRECTION : 0
COEFFICIENT FOR HORIZONTAL DIFFUSION OF SUSPENDED SEDIMENTS : 1.E-6
COEFFICIENT FOR VERTICAL DIFFUSION OF SUSPENDED SEDIMENTS : 1.E-6
/----------------------------------------------------------------------/
/ NUMERICAL OPTIONS
/----------------------------------------------------------------------/
SCHEME FOR ADVECTION OF SUSPENDED SEDIMENTS = 5
ADVECTION-DIFFUSION SCHEME WITH SETTLING VELOCITY : 1 / SET_DIF scheme
SCHEME OPTION FOR ADVECTION OF SUSPENDED SEDIMENTS = 2
PRECONDITIONING FOR DIFFUSION OF SUSPENSION  = 2
SOLVER FOR DIFFUSION OF SUSPENSION = 3
MAXIMUM NUMBER OF ITERATIONS FOR SOLVER FOR SUSPENSION = 50
