 TELEMAC-3D V5.3   REFERENCE TEST CASE
 UPDATED 12/00 AG @ LNHE
------------------------------------------
Heated V Shapped Container
------------------------------------------
Stratified Temperature Driven Flow
The Tracer is depth-stratified
Nothing Happens....
Make sure that Vertical Viscosity = 0
-------------------------------------------




